2D_structures\o12_MMV637533_2D.pdb
 OpenBabel02252417213D

 64 68  0  0  1  0  0  0  0  0999 V2000
    7.1390   -0.7690    0.0000 Cl  0  0  0  0  0  0  0  0  0  0  0  0
    7.3650   -0.0040    0.0000 C   0  0  0  0  0  0  0  0  0  0  0  0
    6.3310    1.0830    0.0000 C   0  0  0  0  0  0  0  0  0  0  0  0
    6.7550    2.5210    0.0000 C   0  0  0  0  0  0  0  0  0  0  0  0
    8.2130    2.8740    0.0000 C   0  0  0  0  0  0  0  0  0  0  0  0
    9.2470    1.7870    0.0000 C   0  0  0  0  0  0  0  0  0  0  0  0
    8.8230    0.3480    0.0000 C   0  0  0  0  0  0  0  0  0  0  0  0
   10.7050    2.1390    0.0000 Cl  0  0  0  0  0  0  0  0  0  0  0  0
    4.8730    0.7310    0.0000 C   0  0  1  0  0  0  0  0  0  0  0  0
    3.5200    0.0830    0.0000 O   0  0  0  0  0  0  0  0  0  0  0  0
    2.4860    1.1700    0.0000 C   0  0  0  0  0  0  0  0  0  0  0  0
    1.5130    0.0280    0.0000 C   0  0  0  0  0  0  0  0  0  0  0  0
    0.5400   -1.1140    0.0000 O   0  0  0  0  0  0  0  0  0  0  0  0
   -0.9350   -0.8430    0.0000 C   0  0  0  0  0  0  0  0  0  0  0  0
   -1.4380    0.5700    0.0000 C   0  0  0  0  0  0  0  0  0  0  0  0
   -2.9130    0.8420    0.0000 C   0  0  0  0  0  0  0  0  0  0  0  0
   -3.8850   -0.3000    0.0000 C   0  0  0  0  0  0  0  0  0  0  0  0
   -5.3610   -0.0290    0.0000 N   0  0  0  0  0  0  0  0  0  0  0  0
   -5.8630    1.3850    0.0000 C   0  0  0  0  0  0  0  0  0  0  0  0
   -7.3390    1.6560    0.0000 C   0  0  0  0  0  0  0  0  0  0  0  0
   -8.3110    0.5140    0.0000 N   0  0  0  0  0  0  0  0  0  0  0  0
   -9.7860    0.7850    0.0000 C   0  0  0  0  0  0  0  0  0  0  0  0
  -10.2890    2.1990    0.0000 O   0  0  0  0  0  0  0  0  0  0  0  0
  -10.7590   -0.3560    0.0000 C   0  0  0  0  0  0  0  0  0  0  0  0
   -7.8090   -0.8990    0.0000 C   0  0  0  0  0  0  0  0  0  0  0  0
   -6.3330   -1.1710    0.0000 C   0  0  0  0  0  0  0  0  0  0  0  0
   -3.3830   -1.7130    0.0000 C   0  0  0  0  0  0  0  0  0  0  0  0
   -1.9080   -1.9850    0.0000 C   0  0  0  0  0  0  0  0  0  0  0  0
    3.2000    2.4890    0.0000 C   0  0  0  0  0  0  0  0  0  0  0  0
    4.6750    2.2170    0.0000 O   0  0  0  0  0  0  0  0  0  0  0  0
    5.3750   -0.6830    0.0000 C   0  0  0  0  0  0  0  0  0  0  0  0
    5.8780   -2.0960    0.0000 N   0  0  0  0  0  0  0  0  0  0  0  0
    7.3170   -2.5200    0.0000 C   0  0  0  0  0  0  0  0  0  0  0  0
    7.3580   -4.0200    0.0000 N   0  0  0  0  0  0  0  0  0  0  0  0
    5.9450   -4.5220    0.0000 C   0  0  0  0  0  0  0  0  0  0  0  0
    5.0300   -3.3330    0.0000 C   0  0  0  0  0  0  0  0  0  0  0  0
    5.7210    3.6080    0.0000 H   0  0  0  0  0  0  0  0  0  0  0  0
    8.6370    4.3120    0.0000 H   0  0  0  0  0  0  0  0  0  0  0  0
    9.8570   -0.7390    0.0000 H   0  0  0  0  0  0  0  0  0  0  0  0
    1.2480    2.0180    0.0000 H   0  0  0  0  0  0  0  0  0  0  0  0
    0.3710    1.0000    0.0000 H   0  0  0  0  0  0  0  0  0  0  0  0
    2.6550   -0.9450    0.0000 H   0  0  0  0  0  0  0  0  0  0  0  0
   -0.4650    1.7120    0.0000 H   0  0  0  0  0  0  0  0  0  0  0  0
   -3.4150    2.2550    0.0000 H   0  0  0  0  0  0  0  0  0  0  0  0
   -5.8520    2.8850    0.0000 H   0  0  0  0  0  0  0  0  0  0  0  0
   -4.3840    1.6340    0.0000 H   0  0  0  0  0  0  0  0  0  0  0  0
   -8.6320    2.4160    0.0000 H   0  0  0  0  0  0  0  0  0  0  0  0
   -6.8150    3.0620    0.0000 H   0  0  0  0  0  0  0  0  0  0  0  0
  -11.7320   -1.4980    0.0000 H   0  0  0  0  0  0  0  0  0  0  0  0
   -9.9370   -1.2510    0.0000 H   0  0  0  0  0  0  0  0  0  0  0  0
  -11.9010    0.6160    0.0000 H   0  0  0  0  0  0  0  0  0  0  0  0
   -7.8200   -2.3990    0.0000 H   0  0  0  0  0  0  0  0  0  0  0  0
   -8.9730   -1.2460    0.0000 H   0  0  0  0  0  0  0  0  0  0  0  0
   -5.0400   -1.9300    0.0000 H   0  0  0  0  0  0  0  0  0  0  0  0
   -6.8570   -2.5760    0.0000 H   0  0  0  0  0  0  0  0  0  0  0  0
   -4.3550   -2.8550    0.0000 H   0  0  0  0  0  0  0  0  0  0  0  0
   -1.4050   -3.3980    0.0000 H   0  0  0  0  0  0  0  0  0  0  0  0
    1.8130    3.0610    0.0000 H   0  0  0  0  0  0  0  0  0  0  0  0
    3.6240    3.9280    0.0000 H   0  0  0  0  0  0  0  0  0  0  0  0
    3.9620   -1.1850    0.0000 H   0  0  0  0  0  0  0  0  0  0  0  0
    6.1690   -0.6050    0.0000 H   0  0  0  0  0  0  0  0  0  0  0  0
    8.5050   -1.6050    0.0000 H   0  0  0  0  0  0  0  0  0  0  0  0
    5.5200   -5.9610    0.0000 H   0  0  0  0  0  0  0  0  0  0  0  0
    3.5300   -3.3750    0.0000 H   0  0  0  0  0  0  0  0  0  0  0  0
  1  2  1  0  0  0  0
  2  3  2  0  0  0  0
  2  7  1  0  0  0  0
  3  4  1  0  0  0  0
  3  9  1  0  0  0  0
  4  5  2  0  0  0  0
  4 37  1  0  0  0  0
  5  6  1  0  0  0  0
  5 38  1  0  0  0  0
  6  7  2  0  0  0  0
  6  8  1  0  0  0  0
  7 39  1  0  0  0  0
  9 10  1  0  0  0  0
  9 30  1  0  0  0  0
  9 31  1  6  0  0  0
 10 11  1  0  0  0  0
 11 12  1  0  0  0  0
 11 29  2  0  0  0  0
 11 40  1  0  0  0  0
 12 13  1  0  0  0  0
 12 41  1  0  0  0  0
 12 42  1  0  0  0  0
 13 14  1  0  0  0  0
 14 15  2  0  0  0  0
 14 28  1  0  0  0  0
 15 16  1  0  0  0  0
 15 43  1  0  0  0  0
 16 17  2  0  0  0  0
 16 44  1  0  0  0  0
 17 18  1  0  0  0  0
 17 27  1  0  0  0  0
 18 19  1  0  0  0  0
 18 26  1  0  0  0  0
 19 20  1  0  0  0  0
 19 45  1  0  0  0  0
 19 46  1  0  0  0  0
 20 21  1  0  0  0  0
 20 47  1  0  0  0  0
 20 48  1  0  0  0  0
 21 22  1  0  0  0  0
 21 25  1  0  0  0  0
 22 23  2  0  0  0  0
 22 24  1  0  0  0  0
 24 49  1  0  0  0  0
 24 50  1  0  0  0  0
 24 51  1  0  0  0  0
 25 26  1  0  0  0  0
 25 52  1  0  0  0  0
 25 53  1  0  0  0  0
 26 54  1  0  0  0  0
 26 55  1  0  0  0  0
 27 28  2  0  0  0  0
 27 56  1  0  0  0  0
 28 57  1  0  0  0  0
 29 30  1  0  0  0  0
 29 58  1  0  0  0  0
 29 59  1  0  0  0  0
 31 32  1  0  0  0  0
 31 60  1  0  0  0  0
 31 61  1  0  0  0  0
 32 33  1  0  0  0  0
 32 36  1  0  0  0  0
 33 34  2  0  0  0  0
 33 62  1  0  0  0  0
 34 35  1  0  0  0  0
 35 36  2  0  0  0  0
 35 63  1  0  0  0  0
 36 64  1  0  0  0  0
M  END
$$$$
