2D_structures\o17_MMV003143_2D.pdb
 OpenBabel02252417213D

 34 36  0  0  0  0  0  0  0  0999 V2000
    2.3830    1.4800    0.0000 S   0  0  0  0  0  0  0  0  0  0  0  0
    1.2500    0.4970    0.0000 C   0  0  0  0  0  0  0  0  0  0  0  0
   -0.1680    0.9870    0.0000 C   0  0  0  0  0  0  0  0  0  0  0  0
   -1.3010    0.0040    0.0000 C   0  0  0  0  0  0  0  0  0  0  0  0
   -1.0170   -1.4680    0.0000 C   0  0  0  0  0  0  0  0  0  0  0  0
   -2.3290   -2.1940    0.0000 N   0  0  0  0  0  0  0  0  0  0  0  0
   -3.4250   -1.1700    0.0000 C   0  0  0  0  0  0  0  0  0  0  0  0
   -2.7900    0.1890    0.0000 N   0  0  0  0  0  0  0  0  0  0  0  0
   -4.8980   -1.4540    0.0000 N   0  0  0  0  0  0  0  0  0  0  0  0
   -5.8810   -0.3210    0.0000 C   0  0  0  0  0  0  0  0  0  0  0  0
   -7.3540   -0.6060    0.0000 O   0  0  0  0  0  0  0  0  0  0  0  0
   -5.3910    1.0970    0.0000 O   0  0  0  0  0  0  0  0  0  0  0  0
   -6.3740    2.2300    0.0000 C   0  0  0  0  0  0  0  0  0  0  0  0
    0.4010   -1.9580    0.0000 C   0  0  0  0  0  0  0  0  0  0  0  0
    1.5340   -0.9760    0.0000 C   0  0  0  0  0  0  0  0  0  0  0  0
    3.8010    0.9900    0.0000 C   0  0  0  0  0  0  0  0  0  0  0  0
    4.0850   -0.4830    0.0000 C   0  0  0  0  0  0  0  0  0  0  0  0
    5.5030   -0.9730    0.0000 C   0  0  0  0  0  0  0  0  0  0  0  0
    6.6360    0.0100    0.0000 C   0  0  0  0  0  0  0  0  0  0  0  0
    6.3520    1.4830    0.0000 C   0  0  0  0  0  0  0  0  0  0  0  0
    4.9340    1.9730    0.0000 C   0  0  0  0  0  0  0  0  0  0  0  0
   -0.4520    2.4600    0.0000 H   0  0  0  0  0  0  0  0  0  0  0  0
   -2.5140   -3.6830    0.0000 H   0  0  0  0  0  0  0  0  0  0  0  0
   -5.3880   -2.8720    0.0000 H   0  0  0  0  0  0  0  0  0  0  0  0
   -7.3560    3.3630    0.0000 H   0  0  0  0  0  0  0  0  0  0  0  0
   -5.2400    3.2130    0.0000 H   0  0  0  0  0  0  0  0  0  0  0  0
   -7.5070    1.2470    0.0000 H   0  0  0  0  0  0  0  0  0  0  0  0
    0.6860   -3.4310    0.0000 H   0  0  0  0  0  0  0  0  0  0  0  0
    2.4180   -1.4080    0.0000 H   0  0  0  0  0  0  0  0  0  0  0  0
    3.4260   -1.2130    0.0000 H   0  0  0  0  0  0  0  0  0  0  0  0
    5.7870   -2.4450    0.0000 H   0  0  0  0  0  0  0  0  0  0  0  0
    8.0540   -0.4800    0.0000 H   0  0  0  0  0  0  0  0  0  0  0  0
    7.4850    2.4660    0.0000 H   0  0  0  0  0  0  0  0  0  0  0  0
    4.6490    3.4460    0.0000 H   0  0  0  0  0  0  0  0  0  0  0  0
  1  2  1  0  0  0  0
  1 16  1  0  0  0  0
  2  3  2  0  0  0  0
  2 15  1  0  0  0  0
  3  4  1  0  0  0  0
  3 22  1  0  0  0  0
  4  5  2  0  0  0  0
  4  8  1  0  0  0  0
  5  6  1  0  0  0  0
  5 14  1  0  0  0  0
  6  7  1  0  0  0  0
  6 23  1  0  0  0  0
  7  8  2  0  0  0  0
  7  9  1  0  0  0  0
  9 10  1  0  0  0  0
  9 24  1  0  0  0  0
 10 11  2  0  0  0  0
 10 12  1  0  0  0  0
 12 13  1  0  0  0  0
 13 25  1  0  0  0  0
 13 26  1  0  0  0  0
 13 27  1  0  0  0  0
 14 15  2  0  0  0  0
 14 28  1  0  0  0  0
 15 29  1  0  0  0  0
 16 17  2  0  0  0  0
 16 21  1  0  0  0  0
 17 18  1  0  0  0  0
 17 30  1  0  0  0  0
 18 19  2  0  0  0  0
 18 31  1  0  0  0  0
 19 20  1  0  0  0  0
 19 32  1  0  0  0  0
 20 21  2  0  0  0  0
 20 33  1  0  0  0  0
 21 34  1  0  0  0  0
M  END
$$$$
