2D_structures\o1_MMV1634492_2D.pdb
 OpenBabel02252417213D

 36 39  0  0  1  0  0  0  0  0999 V2000
    1.5640   -3.2070    0.0000 Cl  0  0  0  0  0  0  0  0  0  0  0  0
    2.3560   -1.9330    0.0000 C   0  0  0  0  0  0  0  0  0  0  0  0
    1.6490   -0.6110    0.0000 C   0  0  0  0  0  0  0  0  0  0  0  0
    2.4410    0.6630    0.0000 C   0  0  0  0  0  0  0  0  0  0  0  0
    3.9400    0.6140    0.0000 C   0  0  0  0  0  0  0  0  0  0  0  0
    4.6480   -0.7090    0.0000 C   0  0  0  0  0  0  0  0  0  0  0  0
    3.8560   -1.9820    0.0000 C   0  0  0  0  0  0  0  0  0  0  0  0
    6.1470   -0.7580    0.0000 Cl  0  0  0  0  0  0  0  0  0  0  0  0
    1.9390    2.0770    0.0000 C   0  0  0  0  0  0  0  0  0  0  0  0
    0.5210    2.5650    0.0000 C   0  0  0  0  0  0  0  0  0  0  0  0
   -0.7450    1.7610    0.0000 C   0  0  0  0  0  0  0  0  0  0  0  0
   -0.9060    0.2700    0.0000 C   0  0  0  0  0  0  0  0  0  0  0  0
    0.1590   -0.7860    0.0000 C   0  0  1  0  0  0  0  0  0  0  0  0
   -1.1070   -1.5900    0.0000 N   0  0  0  0  0  0  0  0  0  0  0  0
   -1.2010   -3.0870    0.0000 C   0  0  0  0  0  0  0  0  0  0  0  0
   -2.6530   -3.4600    0.0000 N   0  0  0  0  0  0  0  0  0  0  0  0
   -3.4570   -2.1940    0.0000 C   0  0  0  0  0  0  0  0  0  0  0  0
   -2.5020   -1.0380    0.0000 C   0  0  0  0  0  0  0  0  0  0  0  0
   -2.2780   -0.3360    0.0000 C   0  0  0  0  0  0  0  0  0  0  0  0
   -3.4890    0.5490    0.0000 C   0  0  0  0  0  0  0  0  0  0  0  0
   -3.3280    2.0400    0.0000 C   0  0  0  0  0  0  0  0  0  0  0  0
   -1.9560    2.6460    0.0000 C   0  0  0  0  0  0  0  0  0  0  0  0
    4.7320    1.8880    0.0000 H   0  0  0  0  0  0  0  0  0  0  0  0
    4.5630   -3.3050    0.0000 H   0  0  0  0  0  0  0  0  0  0  0  0
    3.4290    2.2520    0.0000 H   0  0  0  0  0  0  0  0  0  0  0  0
    2.2810    3.5370    0.0000 H   0  0  0  0  0  0  0  0  0  0  0  0
    1.1520    3.9260    0.0000 H   0  0  0  0  0  0  0  0  0  0  0  0
   -0.5450    3.6210    0.0000 H   0  0  0  0  0  0  0  0  0  0  0  0
    0.6620   -2.1990    0.0000 H   0  0  0  0  0  0  0  0  0  0  0  0
   -0.0450   -4.0430    0.0000 H   0  0  0  0  0  0  0  0  0  0  0  0
   -4.9550   -2.1000    0.0000 H   0  0  0  0  0  0  0  0  0  0  0  0
   -2.8810   -0.3370    0.0000 H   0  0  0  0  0  0  0  0  0  0  0  0
   -2.7950   -1.7440    0.0000 H   0  0  0  0  0  0  0  0  0  0  0  0
   -4.8610   -0.0580    0.0000 H   0  0  0  0  0  0  0  0  0  0  0  0
   -4.5390    2.9250    0.0000 H   0  0  0  0  0  0  0  0  0  0  0  0
   -1.7960    4.1380    0.0000 H   0  0  0  0  0  0  0  0  0  0  0  0
  1  2  1  0  0  0  0
  2  3  2  0  0  0  0
  2  7  1  0  0  0  0
  3  4  1  0  0  0  0
  3 13  1  0  0  0  0
  4  5  2  0  0  0  0
  4  9  1  0  0  0  0
  5  6  1  0  0  0  0
  5 23  1  0  0  0  0
  6  7  2  0  0  0  0
  6  8  1  0  0  0  0
  7 24  1  0  0  0  0
  9 10  1  0  0  0  0
  9 25  1  0  0  0  0
  9 26  1  0  0  0  0
 10 11  1  0  0  0  0
 10 27  1  0  0  0  0
 10 28  1  0  0  0  0
 11 12  2  0  0  0  0
 11 22  1  0  0  0  0
 12 13  1  0  0  0  0
 12 19  1  0  0  0  0
 13 14  1  0  0  0  0
 13 29  1  1  0  0  0
 14 15  1  0  0  0  0
 14 18  1  0  0  0  0
 15 16  2  0  0  0  0
 15 30  1  0  0  0  0
 16 17  1  0  0  0  0
 17 18  2  0  0  0  0
 17 31  1  0  0  0  0
 18 32  1  0  0  0  0
 19 20  2  0  0  0  0
 19 33  1  0  0  0  0
 20 21  1  0  0  0  0
 20 34  1  0  0  0  0
 21 22  2  0  0  0  0
 21 35  1  0  0  0  0
 22 36  1  0  0  0  0
M  END
$$$$
