2D_structures\o20_MMV1634359_2D.pdb
 OpenBabel02252417213D

 47 48  0  0  0  0  0  0  0  0999 V2000
    1.3310   -1.2010    0.0000 N   0  0  0  0  0  0  0  0  0  0  0  0
    2.4690   -0.2240    0.0000 C   0  0  0  0  0  0  0  0  0  0  0  0
    3.6080    0.7520    0.0000 C   0  0  0  0  0  0  0  0  0  0  0  0
    3.3320    2.2270    0.0000 C   0  0  0  0  0  0  0  0  0  0  0  0
    4.4700    3.2030    0.0000 C   0  0  0  0  0  0  0  0  0  0  0  0
    5.8850    2.7050    0.0000 C   0  0  0  0  0  0  0  0  0  0  0  0
    6.1610    1.2310    0.0000 C   0  0  0  0  0  0  0  0  0  0  0  0
    7.5760    0.7330    0.0000 C   0  0  0  0  0  0  0  0  0  0  0  0
    7.8530   -0.7410    0.0000 C   0  0  0  0  0  0  0  0  0  0  0  0
    6.7140   -1.7180    0.0000 C   0  0  0  0  0  0  0  0  0  0  0  0
    5.2990   -1.2200    0.0000 C   0  0  0  0  0  0  0  0  0  0  0  0
    5.0230    0.2550    0.0000 C   0  0  0  0  0  0  0  0  0  0  0  0
   -0.0840   -0.7030    0.0000 C   0  0  0  0  0  0  0  0  0  0  0  0
   -1.4990   -0.2050    0.0000 C   0  0  0  0  0  0  0  0  0  0  0  0
   -2.6380   -1.1820    0.0000 C   0  0  0  0  0  0  0  0  0  0  0  0
   -4.0530   -0.6840    0.0000 C   0  0  0  0  0  0  0  0  0  0  0  0
   -5.4680   -0.1860    0.0000 C   0  0  0  0  0  0  0  0  0  0  0  0
   -6.8830    0.3120    0.0000 C   0  0  0  0  0  0  0  0  0  0  0  0
   -8.2980    0.8100    0.0000 C   0  0  0  0  0  0  0  0  0  0  0  0
   -7.3810   -1.1030    0.0000 C   0  0  0  0  0  0  0  0  0  0  0  0
   -6.3850    1.7270    0.0000 C   0  0  0  0  0  0  0  0  0  0  0  0
    1.6070   -2.6750    0.0000 C   0  0  0  0  0  0  0  0  0  0  0  0
    1.4930    0.9140    0.0000 H   0  0  0  0  0  0  0  0  0  0  0  0
    3.4460   -1.3630    0.0000 H   0  0  0  0  0  0  0  0  0  0  0  0
    1.9170    2.7250    0.0000 H   0  0  0  0  0  0  0  0  0  0  0  0
    4.1940    4.6780    0.0000 H   0  0  0  0  0  0  0  0  0  0  0  0
    7.0240    3.6820    0.0000 H   0  0  0  0  0  0  0  0  0  0  0  0
    8.7150    1.7100    0.0000 H   0  0  0  0  0  0  0  0  0  0  0  0
    9.2680   -1.2390    0.0000 H   0  0  0  0  0  0  0  0  0  0  0  0
    6.9910   -3.1920    0.0000 H   0  0  0  0  0  0  0  0  0  0  0  0
    4.1610   -2.1960    0.0000 H   0  0  0  0  0  0  0  0  0  0  0  0
    0.4130    0.7120    0.0000 H   0  0  0  0  0  0  0  0  0  0  0  0
   -0.5820   -2.1180    0.0000 H   0  0  0  0  0  0  0  0  0  0  0  0
   -1.7760    1.2690    0.0000 H   0  0  0  0  0  0  0  0  0  0  0  0
   -2.3620   -2.6560    0.0000 H   0  0  0  0  0  0  0  0  0  0  0  0
   -9.7130    1.3080    0.0000 H   0  0  0  0  0  0  0  0  0  0  0  0
   -8.1080    1.6750    0.0000 H   0  0  0  0  0  0  0  0  0  0  0  0
   -8.6910    0.0160    0.0000 H   0  0  0  0  0  0  0  0  0  0  0  0
   -7.8790   -2.5180    0.0000 H   0  0  0  0  0  0  0  0  0  0  0  0
   -8.2460   -0.9130    0.0000 H   0  0  0  0  0  0  0  0  0  0  0  0
   -5.9660   -1.6010    0.0000 H   0  0  0  0  0  0  0  0  0  0  0  0
   -5.8870    3.1420    0.0000 H   0  0  0  0  0  0  0  0  0  0  0  0
   -7.1790    2.1210    0.0000 H   0  0  0  0  0  0  0  0  0  0  0  0
   -4.9700    1.2290    0.0000 H   0  0  0  0  0  0  0  0  0  0  0  0
    1.8830   -4.1490    0.0000 H   0  0  0  0  0  0  0  0  0  0  0  0
    0.1330   -2.9510    0.0000 H   0  0  0  0  0  0  0  0  0  0  0  0
    3.0810   -2.3990    0.0000 H   0  0  0  0  0  0  0  0  0  0  0  0
  1  2  1  0  0  0  0
  1 13  1  0  0  0  0
  1 22  1  0  0  0  0
  2  3  1  0  0  0  0
  2 23  1  0  0  0  0
  2 24  1  0  0  0  0
  3  4  2  0  0  0  0
  3 12  1  0  0  0  0
  4  5  1  0  0  0  0
  4 25  1  0  0  0  0
  5  6  2  0  0  0  0
  5 26  1  0  0  0  0
  6  7  1  0  0  0  0
  6 27  1  0  0  0  0
  7  8  2  0  0  0  0
  7 12  1  0  0  0  0
  8  9  1  0  0  0  0
  8 28  1  0  0  0  0
  9 10  2  0  0  0  0
  9 29  1  0  0  0  0
 10 11  1  0  0  0  0
 10 30  1  0  0  0  0
 11 12  2  0  0  0  0
 11 31  1  0  0  0  0
 13 14  1  0  0  0  0
 13 32  1  0  0  0  0
 13 33  1  0  0  0  0
 14 15  2  0  0  0  0
 14 34  1  0  0  0  0
 15 16  1  0  0  0  0
 15 35  1  0  0  0  0
 16 17  3  0  0  0  0
 17 18  1  0  0  0  0
 18 19  1  0  0  0  0
 18 20  1  0  0  0  0
 18 21  1  0  0  0  0
 19 36  1  0  0  0  0
 19 37  1  0  0  0  0
 19 38  1  0  0  0  0
 20 39  1  0  0  0  0
 20 40  1  0  0  0  0
 20 41  1  0  0  0  0
 21 42  1  0  0  0  0
 21 43  1  0  0  0  0
 21 44  1  0  0  0  0
 22 45  1  0  0  0  0
 22 46  1  0  0  0  0
 22 47  1  0  0  0  0
M  END
$$$$
