2D_structures\o21_MMV1782110_2D.pdb
 OpenBabel02252417213D

 48 51  0  0  0  0  0  0  0  0999 V2000
    7.3810   -2.4330    0.0000 F   0  0  0  0  0  0  0  0  0  0  0  0
    7.9640   -1.0510    0.0000 C   0  0  0  0  0  0  0  0  0  0  0  0
    7.0580    0.1450    0.0000 C   0  0  0  0  0  0  0  0  0  0  0  0
    5.5700   -0.0420    0.0000 C   0  0  0  0  0  0  0  0  0  0  0  0
    4.6640    1.1540    0.0000 C   0  0  0  0  0  0  0  0  0  0  0  0
    3.1760    0.9670    0.0000 C   0  0  0  0  0  0  0  0  0  0  0  0
    2.5930   -0.4150    0.0000 C   0  0  0  0  0  0  0  0  0  0  0  0
    1.1050   -0.6010    0.0000 C   0  0  0  0  0  0  0  0  0  0  0  0
   -0.3840   -0.7880    0.0000 N   0  0  0  0  0  0  0  0  0  0  0  0
   -1.2890    0.4080    0.0000 C   0  0  0  0  0  0  0  0  0  0  0  0
   -0.7070    1.7900    0.0000 O   0  0  0  0  0  0  0  0  0  0  0  0
   -2.7780    0.2210    0.0000 C   0  0  0  0  0  0  0  0  0  0  0  0
   -4.2660    0.0350    0.0000 C   0  0  0  0  0  0  0  0  0  0  0  0
   -5.7540   -0.1520    0.0000 C   0  0  0  0  0  0  0  0  0  0  0  0
   -6.6600    1.0440    0.0000 C   0  0  0  0  0  0  0  0  0  0  0  0
   -8.1490    0.8570    0.0000 C   0  0  0  0  0  0  0  0  0  0  0  0
   -8.7310   -0.5250    0.0000 C   0  0  0  0  0  0  0  0  0  0  0  0
  -10.2260   -0.3980    0.0000 O   0  0  0  0  0  0  0  0  0  0  0  0
  -10.5670    1.0630    0.0000 C   0  0  0  0  0  0  0  0  0  0  0  0
   -9.2830    1.8390    0.0000 O   0  0  0  0  0  0  0  0  0  0  0  0
   -7.8250   -1.7200    0.0000 C   0  0  0  0  0  0  0  0  0  0  0  0
   -6.3370   -1.5340    0.0000 C   0  0  0  0  0  0  0  0  0  0  0  0
    3.4990   -1.6100    0.0000 C   0  0  0  0  0  0  0  0  0  0  0  0
    4.9870   -1.4240    0.0000 C   0  0  0  0  0  0  0  0  0  0  0  0
    7.6410    1.5270    0.0000 C   0  0  0  0  0  0  0  0  0  0  0  0
    9.1290    1.7140    0.0000 C   0  0  0  0  0  0  0  0  0  0  0  0
   10.0350    0.5180    0.0000 C   0  0  0  0  0  0  0  0  0  0  0  0
    9.4520   -0.8640    0.0000 C   0  0  0  0  0  0  0  0  0  0  0  0
    5.2470    2.5360    0.0000 H   0  0  0  0  0  0  0  0  0  0  0  0
    2.2700    2.1630    0.0000 H   0  0  0  0  0  0  0  0  0  0  0  0
    0.9180    0.8870    0.0000 H   0  0  0  0  0  0  0  0  0  0  0  0
    1.2910   -2.0900    0.0000 H   0  0  0  0  0  0  0  0  0  0  0  0
   -0.9660   -2.1700    0.0000 H   0  0  0  0  0  0  0  0  0  0  0  0
   -2.5910   -1.2670    0.0000 H   0  0  0  0  0  0  0  0  0  0  0  0
   -2.9640    1.7100    0.0000 H   0  0  0  0  0  0  0  0  0  0  0  0
   -4.0800   -1.4540    0.0000 H   0  0  0  0  0  0  0  0  0  0  0  0
   -4.4530    1.5230    0.0000 H   0  0  0  0  0  0  0  0  0  0  0  0
   -6.0780    2.4260    0.0000 H   0  0  0  0  0  0  0  0  0  0  0  0
  -11.9840    0.5710    0.0000 H   0  0  0  0  0  0  0  0  0  0  0  0
  -11.2040    2.4210    0.0000 H   0  0  0  0  0  0  0  0  0  0  0  0
   -8.4080   -3.1030    0.0000 H   0  0  0  0  0  0  0  0  0  0  0  0
   -5.4310   -2.7300    0.0000 H   0  0  0  0  0  0  0  0  0  0  0  0
    2.9160   -2.9930    0.0000 H   0  0  0  0  0  0  0  0  0  0  0  0
    5.8930   -2.6200    0.0000 H   0  0  0  0  0  0  0  0  0  0  0  0
    6.7350    2.7230    0.0000 H   0  0  0  0  0  0  0  0  0  0  0  0
    9.7120    3.0960    0.0000 H   0  0  0  0  0  0  0  0  0  0  0  0
   11.5230    0.7040    0.0000 H   0  0  0  0  0  0  0  0  0  0  0  0
   10.3580   -2.0600    0.0000 H   0  0  0  0  0  0  0  0  0  0  0  0
  1  2  1  0  0  0  0
  2  3  2  0  0  0  0
  2 28  1  0  0  0  0
  3  4  1  0  0  0  0
  3 25  1  0  0  0  0
  4  5  2  0  0  0  0
  4 24  1  0  0  0  0
  5  6  1  0  0  0  0
  5 29  1  0  0  0  0
  6  7  2  0  0  0  0
  6 30  1  0  0  0  0
  7  8  1  0  0  0  0
  7 23  1  0  0  0  0
  8  9  1  0  0  0  0
  8 31  1  0  0  0  0
  8 32  1  0  0  0  0
  9 10  1  0  0  0  0
  9 33  1  0  0  0  0
 10 11  2  0  0  0  0
 10 12  1  0  0  0  0
 12 13  1  0  0  0  0
 12 34  1  0  0  0  0
 12 35  1  0  0  0  0
 13 14  1  0  0  0  0
 13 36  1  0  0  0  0
 13 37  1  0  0  0  0
 14 15  2  0  0  0  0
 14 22  1  0  0  0  0
 15 16  1  0  0  0  0
 15 38  1  0  0  0  0
 16 17  2  0  0  0  0
 16 20  1  0  0  0  0
 17 18  1  0  0  0  0
 17 21  1  0  0  0  0
 18 19  1  0  0  0  0
 19 20  1  0  0  0  0
 19 39  1  0  0  0  0
 19 40  1  0  0  0  0
 21 22  2  0  0  0  0
 21 41  1  0  0  0  0
 22 42  1  0  0  0  0
 23 24  2  0  0  0  0
 23 43  1  0  0  0  0
 24 44  1  0  0  0  0
 25 26  2  0  0  0  0
 25 45  1  0  0  0  0
 26 27  1  0  0  0  0
 26 46  1  0  0  0  0
 27 28  2  0  0  0  0
 27 47  1  0  0  0  0
 28 48  1  0  0  0  0
M  END
$$$$
