2D_structures\o25_MMV1578560_2D.pdb
 OpenBabel02252417213D

 53 57  0  0  0  0  0  0  0  0999 V2000
    0.3420    8.2760    0.0000 F   0  0  0  0  0  0  0  0  0  0  0  0
    0.2410    6.7790    0.0000 C   0  0  0  0  0  0  0  0  0  0  0  0
    1.7370    6.6770    0.0000 F   0  0  0  0  0  0  0  0  0  0  0  0
   -1.2560    6.8810    0.0000 F   0  0  0  0  0  0  0  0  0  0  0  0
    0.1390    5.2830    0.0000 C   0  0  0  0  0  0  0  0  0  0  0  0
   -1.1310    4.4850    0.0000 N   0  0  0  0  0  0  0  0  0  0  0  0
   -0.7650    3.0300    0.0000 N   0  0  0  0  0  0  0  0  0  0  0  0
   -1.7270    1.8790    0.0000 C   0  0  0  0  0  0  0  0  0  0  0  0
   -1.2110    0.4710    0.0000 C   0  0  0  0  0  0  0  0  0  0  0  0
   -2.1730   -0.6800    0.0000 C   0  0  0  0  0  0  0  0  0  0  0  0
   -3.6510   -0.4230    0.0000 C   0  0  0  0  0  0  0  0  0  0  0  0
   -4.6130   -1.5740    0.0000 N   0  0  0  0  0  0  0  0  0  0  0  0
   -6.0910   -1.3160    0.0000 C   0  0  0  0  0  0  0  0  0  0  0  0
   -6.6060    0.0920    0.0000 O   0  0  0  0  0  0  0  0  0  0  0  0
   -7.0520   -2.4670    0.0000 C   0  0  0  0  0  0  0  0  0  0  0  0
   -8.0140   -3.6180    0.0000 N   0  0  0  0  0  0  0  0  0  0  0  0
   -4.1670    0.9860    0.0000 C   0  0  0  0  0  0  0  0  0  0  0  0
   -3.2050    2.1370    0.0000 C   0  0  0  0  0  0  0  0  0  0  0  0
    0.7310    2.9290    0.0000 C   0  0  0  0  0  0  0  0  0  0  0  0
    1.2900    4.3210    0.0000 C   0  0  0  0  0  0  0  0  0  0  0  0
    1.5290    1.6580    0.0000 C   0  0  0  0  0  0  0  0  0  0  0  0
    3.0280    1.7140    0.0000 C   0  0  0  0  0  0  0  0  0  0  0  0
    3.8250    0.4430    0.0000 C   0  0  0  0  0  0  0  0  0  0  0  0
    5.3240    0.4990    0.0000 C   0  0  0  0  0  0  0  0  0  0  0  0
    6.1210   -0.7720    0.0000 C   0  0  0  0  0  0  0  0  0  0  0  0
    5.4200   -2.0980    0.0000 C   0  0  0  0  0  0  0  0  0  0  0  0
    3.9210   -2.1530    0.0000 C   0  0  0  0  0  0  0  0  0  0  0  0
    3.1230   -0.8830    0.0000 C   0  0  0  0  0  0  0  0  0  0  0  0
    1.6240   -0.9380    0.0000 C   0  0  0  0  0  0  0  0  0  0  0  0
    0.8270    0.3320    0.0000 C   0  0  0  0  0  0  0  0  0  0  0  0
    3.2190   -3.4790    0.0000 C   0  0  0  0  0  0  0  0  0  0  0  0
    4.0170   -4.7490    0.0000 C   0  0  0  0  0  0  0  0  0  0  0  0
    5.5160   -4.6940    0.0000 C   0  0  0  0  0  0  0  0  0  0  0  0
    6.2170   -3.3680    0.0000 C   0  0  0  0  0  0  0  0  0  0  0  0
   -0.4830    0.1480    0.0000 H   0  0  0  0  0  0  0  0  0  0  0  0
   -1.6570   -2.0890    0.0000 H   0  0  0  0  0  0  0  0  0  0  0  0
   -4.0970   -2.9820    0.0000 H   0  0  0  0  0  0  0  0  0  0  0  0
   -8.2030   -1.5050    0.0000 H   0  0  0  0  0  0  0  0  0  0  0  0
   -5.9010   -3.4290    0.0000 H   0  0  0  0  0  0  0  0  0  0  0  0
   -7.4980   -5.0270    0.0000 H   0  0  0  0  0  0  0  0  0  0  0  0
   -9.4920   -3.3610    0.0000 H   0  0  0  0  0  0  0  0  0  0  0  0
   -5.6450    1.2430    0.0000 H   0  0  0  0  0  0  0  0  0  0  0  0
   -3.7210    3.5450    0.0000 H   0  0  0  0  0  0  0  0  0  0  0  0
    2.7450    4.6870    0.0000 H   0  0  0  0  0  0  0  0  0  0  0  0
    3.7290    3.0400    0.0000 H   0  0  0  0  0  0  0  0  0  0  0  0
    6.0260    1.8240    0.0000 H   0  0  0  0  0  0  0  0  0  0  0  0
    7.6200   -0.7170    0.0000 H   0  0  0  0  0  0  0  0  0  0  0  0
    0.9230   -2.2640    0.0000 H   0  0  0  0  0  0  0  0  0  0  0  0
    0.0610    0.1110    0.0000 H   0  0  0  0  0  0  0  0  0  0  0  0
    1.7200   -3.5340    0.0000 H   0  0  0  0  0  0  0  0  0  0  0  0
    3.3150   -6.0750    0.0000 H   0  0  0  0  0  0  0  0  0  0  0  0
    6.3130   -5.9640    0.0000 H   0  0  0  0  0  0  0  0  0  0  0  0
    7.7160   -3.3130    0.0000 H   0  0  0  0  0  0  0  0  0  0  0  0
  1  2  1  0  0  0  0
  2  3  1  0  0  0  0
  2  4  1  0  0  0  0
  2  5  1  0  0  0  0
  5  6  2  0  0  0  0
  5 20  1  0  0  0  0
  6  7  1  0  0  0  0
  7  8  1  0  0  0  0
  7 19  1  0  0  0  0
  8  9  2  0  0  0  0
  8 18  1  0  0  0  0
  9 10  1  0  0  0  0
  9 35  1  0  0  0  0
 10 11  2  0  0  0  0
 10 36  1  0  0  0  0
 11 12  1  0  0  0  0
 11 17  1  0  0  0  0
 12 13  1  0  0  0  0
 12 37  1  0  0  0  0
 13 14  2  0  0  0  0
 13 15  1  0  0  0  0
 15 16  1  0  0  0  0
 15 38  1  0  0  0  0
 15 39  1  0  0  0  0
 16 40  1  0  0  0  0
 16 41  1  0  0  0  0
 17 18  2  0  0  0  0
 17 42  1  0  0  0  0
 18 43  1  0  0  0  0
 19 20  2  0  0  0  0
 19 21  1  0  0  0  0
 20 44  1  0  0  0  0
 21 22  2  0  0  0  0
 21 30  1  0  0  0  0
 22 23  1  0  0  0  0
 22 45  1  0  0  0  0
 23 24  2  0  0  0  0
 23 28  1  0  0  0  0
 24 25  1  0  0  0  0
 24 46  1  0  0  0  0
 25 26  2  0  0  0  0
 25 47  1  0  0  0  0
 26 27  1  0  0  0  0
 26 34  1  0  0  0  0
 27 28  2  0  0  0  0
 27 31  1  0  0  0  0
 28 29  1  0  0  0  0
 29 30  2  0  0  0  0
 29 48  1  0  0  0  0
 30 49  1  0  0  0  0
 31 32  2  0  0  0  0
 31 50  1  0  0  0  0
 32 33  1  0  0  0  0
 32 51  1  0  0  0  0
 33 34  2  0  0  0  0
 33 52  1  0  0  0  0
 34 53  1  0  0  0  0
M  END
$$$$
