2D_structures\o28_MMV1782212_2D.pdb
 OpenBabel02252417213D

 49 51  0  0  0  0  0  0  0  0999 V2000
   -7.3590   -0.6980    0.0000 C   0  0  0  0  0  0  0  0  0  0  0  0
   -5.9310   -0.2410    0.0000 C   0  0  0  0  0  0  0  0  0  0  0  0
   -6.3880    1.1880    0.0000 C   0  0  0  0  0  0  0  0  0  0  0  0
   -5.4730   -1.6690    0.0000 C   0  0  0  0  0  0  0  0  0  0  0  0
   -4.5020    0.2170    0.0000 C   0  0  0  0  0  0  0  0  0  0  0  0
   -4.1840    1.6830    0.0000 C   0  0  0  0  0  0  0  0  0  0  0  0
   -2.7560    2.1400    0.0000 C   0  0  0  0  0  0  0  0  0  0  0  0
   -1.6450    1.1320    0.0000 C   0  0  0  0  0  0  0  0  0  0  0  0
   -1.9630   -0.3340    0.0000 C   0  0  0  0  0  0  0  0  0  0  0  0
   -3.3920   -0.7920    0.0000 C   0  0  0  0  0  0  0  0  0  0  0  0
   -0.2170    1.5890    0.0000 C   0  0  0  0  0  0  0  0  0  0  0  0
    0.1010    3.0550    0.0000 O   0  0  0  0  0  0  0  0  0  0  0  0
    0.8940    0.5810    0.0000 N   0  0  0  0  0  0  0  0  0  0  0  0
    2.3220    1.0390    0.0000 C   0  0  0  0  0  0  0  0  0  0  0  0
    2.6400    2.5050    0.0000 O   0  0  0  0  0  0  0  0  0  0  0  0
    3.4330    0.0300    0.0000 N   0  0  0  0  0  0  0  0  0  0  0  0
    3.1150   -1.4360    0.0000 C   0  0  0  0  0  0  0  0  0  0  0  0
    4.2250   -2.4440    0.0000 C   0  0  0  0  0  0  0  0  0  0  0  0
    5.6540   -1.9860    0.0000 C   0  0  0  0  0  0  0  0  0  0  0  0
    5.9720   -0.5200    0.0000 C   0  0  0  0  0  0  0  0  0  0  0  0
    7.4000   -0.0630    0.0000 C   0  0  0  0  0  0  0  0  0  0  0  0
    7.7180    1.4030    0.0000 C   0  0  0  0  0  0  0  0  0  0  0  0
    6.6080    2.4110    0.0000 C   0  0  0  0  0  0  0  0  0  0  0  0
    5.1790    1.9540    0.0000 C   0  0  0  0  0  0  0  0  0  0  0  0
    4.8610    0.4880    0.0000 C   0  0  0  0  0  0  0  0  0  0  0  0
   -8.7880   -1.1560    0.0000 H   0  0  0  0  0  0  0  0  0  0  0  0
   -7.1940   -1.5690    0.0000 H   0  0  0  0  0  0  0  0  0  0  0  0
   -7.7300    0.1060    0.0000 H   0  0  0  0  0  0  0  0  0  0  0  0
   -6.8460    2.6160    0.0000 H   0  0  0  0  0  0  0  0  0  0  0  0
   -7.2580    1.0220    0.0000 H   0  0  0  0  0  0  0  0  0  0  0  0
   -5.6350    1.6540    0.0000 H   0  0  0  0  0  0  0  0  0  0  0  0
   -5.0150   -3.0980    0.0000 H   0  0  0  0  0  0  0  0  0  0  0  0
   -6.2770   -2.0400    0.0000 H   0  0  0  0  0  0  0  0  0  0  0  0
   -3.9760   -1.5710    0.0000 H   0  0  0  0  0  0  0  0  0  0  0  0
   -4.8400    2.2780    0.0000 H   0  0  0  0  0  0  0  0  0  0  0  0
   -2.4380    3.6060    0.0000 H   0  0  0  0  0  0  0  0  0  0  0  0
   -0.8530   -1.3420    0.0000 H   0  0  0  0  0  0  0  0  0  0  0  0
   -3.7100   -2.2580    0.0000 H   0  0  0  0  0  0  0  0  0  0  0  0
    0.5760   -0.8850    0.0000 H   0  0  0  0  0  0  0  0  0  0  0  0
    2.3150   -2.7040    0.0000 H   0  0  0  0  0  0  0  0  0  0  0  0
    1.7270   -0.8680    0.0000 H   0  0  0  0  0  0  0  0  0  0  0  0
    4.9240   -3.7710    0.0000 H   0  0  0  0  0  0  0  0  0  0  0  0
    3.0400   -3.3620    0.0000 H   0  0  0  0  0  0  0  0  0  0  0  0
    7.1530   -2.0450    0.0000 H   0  0  0  0  0  0  0  0  0  0  0  0
    5.8570   -3.4730    0.0000 H   0  0  0  0  0  0  0  0  0  0  0  0
    8.5110   -1.0710    0.0000 H   0  0  0  0  0  0  0  0  0  0  0  0
    9.1470    1.8610    0.0000 H   0  0  0  0  0  0  0  0  0  0  0  0
    6.9260    3.8770    0.0000 H   0  0  0  0  0  0  0  0  0  0  0  0
    4.0690    2.9620    0.0000 H   0  0  0  0  0  0  0  0  0  0  0  0
  1  2  1  0  0  0  0
  1 26  1  0  0  0  0
  1 27  1  0  0  0  0
  1 28  1  0  0  0  0
  2  3  1  0  0  0  0
  2  4  1  0  0  0  0
  2  5  1  0  0  0  0
  3 29  1  0  0  0  0
  3 30  1  0  0  0  0
  3 31  1  0  0  0  0
  4 32  1  0  0  0  0
  4 33  1  0  0  0  0
  4 34  1  0  0  0  0
  5  6  2  0  0  0  0
  5 10  1  0  0  0  0
  6  7  1  0  0  0  0
  6 35  1  0  0  0  0
  7  8  2  0  0  0  0
  7 36  1  0  0  0  0
  8  9  1  0  0  0  0
  8 11  1  0  0  0  0
  9 10  2  0  0  0  0
  9 37  1  0  0  0  0
 10 38  1  0  0  0  0
 11 12  2  0  0  0  0
 11 13  1  0  0  0  0
 13 14  1  0  0  0  0
 13 39  1  0  0  0  0
 14 15  2  0  0  0  0
 14 16  1  0  0  0  0
 16 17  1  0  0  0  0
 16 25  1  0  0  0  0
 17 18  1  0  0  0  0
 17 40  1  0  0  0  0
 17 41  1  0  0  0  0
 18 19  1  0  0  0  0
 18 42  1  0  0  0  0
 18 43  1  0  0  0  0
 19 20  1  0  0  0  0
 19 44  1  0  0  0  0
 19 45  1  0  0  0  0
 20 21  2  0  0  0  0
 20 25  1  0  0  0  0
 21 22  1  0  0  0  0
 21 46  1  0  0  0  0
 22 23  2  0  0  0  0
 22 47  1  0  0  0  0
 23 24  1  0  0  0  0
 23 48  1  0  0  0  0
 24 25  2  0  0  0  0
 24 49  1  0  0  0  0
M  END
$$$$
