2D_structures\o29_MMV1782227_2D.pdb
 OpenBabel02252417213D

 31 32  0  0  0  0  0  0  0  0999 V2000
   -7.5880   -1.6960    0.0000 Cl  0  0  0  0  0  0  0  0  0  0  0  0
   -6.2710   -0.9790    0.0000 C   0  0  0  0  0  0  0  0  0  0  0  0
   -6.2330    0.5210    0.0000 C   0  0  0  0  0  0  0  0  0  0  0  0
   -4.9150    1.2380    0.0000 C   0  0  0  0  0  0  0  0  0  0  0  0
   -3.6350    0.4550    0.0000 C   0  0  0  0  0  0  0  0  0  0  0  0
   -2.3180    1.1720    0.0000 N   0  0  0  0  0  0  0  0  0  0  0  0
   -1.0380    0.3890    0.0000 C   0  0  0  0  0  0  0  0  0  0  0  0
   -1.0760   -1.1100    0.0000 S   0  0  0  0  0  0  0  0  0  0  0  0
    0.2790    1.1060    0.0000 N   0  0  0  0  0  0  0  0  0  0  0  0
    1.5590    0.3240    0.0000 N   0  0  0  0  0  0  0  0  0  0  0  0
    2.8770    1.0400    0.0000 C   0  0  0  0  0  0  0  0  0  0  0  0
    2.9150    2.5400    0.0000 O   0  0  0  0  0  0  0  0  0  0  0  0
    4.1560    0.2580    0.0000 C   0  0  0  0  0  0  0  0  0  0  0  0
    4.1180   -1.2420    0.0000 C   0  0  0  0  0  0  0  0  0  0  0  0
    5.3980   -2.0240    0.0000 C   0  0  0  0  0  0  0  0  0  0  0  0
    6.7160   -1.3070    0.0000 N   0  0  0  0  0  0  0  0  0  0  0  0
    6.7540    0.1920    0.0000 C   0  0  0  0  0  0  0  0  0  0  0  0
    5.4740    0.9750    0.0000 C   0  0  0  0  0  0  0  0  0  0  0  0
   -3.6730   -1.0450    0.0000 C   0  0  0  0  0  0  0  0  0  0  0  0
   -4.9910   -1.7610    0.0000 C   0  0  0  0  0  0  0  0  0  0  0  0
   -7.5120    1.3030    0.0000 H   0  0  0  0  0  0  0  0  0  0  0  0
   -4.8770    2.7370    0.0000 H   0  0  0  0  0  0  0  0  0  0  0  0
   -2.2800    2.6710    0.0000 H   0  0  0  0  0  0  0  0  0  0  0  0
    0.3170    2.6060    0.0000 H   0  0  0  0  0  0  0  0  0  0  0  0
    1.5210   -1.1760    0.0000 H   0  0  0  0  0  0  0  0  0  0  0  0
    2.8010   -1.9590    0.0000 H   0  0  0  0  0  0  0  0  0  0  0  0
    5.3600   -3.5240    0.0000 H   0  0  0  0  0  0  0  0  0  0  0  0
    8.0710    0.9090    0.0000 H   0  0  0  0  0  0  0  0  0  0  0  0
    5.5120    2.4740    0.0000 H   0  0  0  0  0  0  0  0  0  0  0  0
   -2.3940   -1.8270    0.0000 H   0  0  0  0  0  0  0  0  0  0  0  0
   -5.0290   -3.2610    0.0000 H   0  0  0  0  0  0  0  0  0  0  0  0
  1  2  1  0  0  0  0
  2  3  2  0  0  0  0
  2 20  1  0  0  0  0
  3  4  1  0  0  0  0
  3 21  1  0  0  0  0
  4  5  2  0  0  0  0
  4 22  1  0  0  0  0
  5  6  1  0  0  0  0
  5 19  1  0  0  0  0
  6  7  1  0  0  0  0
  6 23  1  0  0  0  0
  7  8  2  0  0  0  0
  7  9  1  0  0  0  0
  9 10  1  0  0  0  0
  9 24  1  0  0  0  0
 10 11  1  0  0  0  0
 10 25  1  0  0  0  0
 11 12  2  0  0  0  0
 11 13  1  0  0  0  0
 13 14  2  0  0  0  0
 13 18  1  0  0  0  0
 14 15  1  0  0  0  0
 14 26  1  0  0  0  0
 15 16  2  0  0  0  0
 15 27  1  0  0  0  0
 16 17  1  0  0  0  0
 17 18  2  0  0  0  0
 17 28  1  0  0  0  0
 18 29  1  0  0  0  0
 19 20  2  0  0  0  0
 19 30  1  0  0  0  0
 20 31  1  0  0  0  0
M  END
$$$$
