2D_structures\o31_MMV1782221_2D.pdb
 OpenBabel02252417213D

 42 44  0  0  1  0  0  0  0  0999 V2000
   -0.6990    1.6590    0.0000 C   0  0  0  0  0  0  0  0  0  0  0  0
    0.4820    0.7340    0.0000 C   0  0  1  0  0  0  0  0  0  0  0  0
   -0.4430   -0.4470    0.0000 N   0  0  0  0  0  0  0  0  0  0  0  0
    0.1170   -1.8380    0.0000 C   0  0  0  0  0  0  0  0  0  0  0  0
   -1.9280   -0.2370    0.0000 C   0  0  0  0  0  0  0  0  0  0  0  0
   -3.4140   -0.0260    0.0000 C   0  0  0  0  0  0  0  0  0  0  0  0
   -4.3380   -1.2070    0.0000 C   0  0  0  0  0  0  0  0  0  0  0  0
   -5.8240   -0.9970    0.0000 C   0  0  0  0  0  0  0  0  0  0  0  0
   -6.3840    0.3950    0.0000 C   0  0  0  0  0  0  0  0  0  0  0  0
   -5.4590    1.5760    0.0000 C   0  0  0  0  0  0  0  0  0  0  0  0
   -3.9740    1.3650    0.0000 C   0  0  0  0  0  0  0  0  0  0  0  0
    1.6620   -0.1910    0.0000 C   0  0  0  0  0  0  0  0  0  0  0  0
    1.4520   -1.6760    0.0000 C   0  0  0  0  0  0  0  0  0  0  0  0
    2.6330   -2.6010    0.0000 C   0  0  0  0  0  0  0  0  0  0  0  0
    4.0240   -2.0410    0.0000 C   0  0  0  0  0  0  0  0  0  0  0  0
    4.2350   -0.5560    0.0000 C   0  0  0  0  0  0  0  0  0  0  0  0
    5.6260    0.0050    0.0000 C   0  0  0  0  0  0  0  0  0  0  0  0
    5.8370    1.4900    0.0000 C   0  0  0  0  0  0  0  0  0  0  0  0
    4.6560    2.4150    0.0000 C   0  0  0  0  0  0  0  0  0  0  0  0
    3.2640    1.8540    0.0000 C   0  0  0  0  0  0  0  0  0  0  0  0
    3.0540    0.3690    0.0000 C   0  0  0  0  0  0  0  0  0  0  0  0
   -1.8800    2.5840    0.0000 H   0  0  0  0  0  0  0  0  0  0  0  0
    0.2250    2.8400    0.0000 H   0  0  0  0  0  0  0  0  0  0  0  0
   -1.9860    0.8880    0.0000 H   0  0  0  0  0  0  0  0  0  0  0  0
    1.4060    1.9150    0.0000 H   0  0  0  0  0  0  0  0  0  0  0  0
    0.6770   -3.2300    0.0000 H   0  0  0  0  0  0  0  0  0  0  0  0
   -1.2740   -2.3990    0.0000 H   0  0  0  0  0  0  0  0  0  0  0  0
    0.9070   -1.7280    0.0000 H   0  0  0  0  0  0  0  0  0  0  0  0
   -1.9010    1.2630    0.0000 H   0  0  0  0  0  0  0  0  0  0  0  0
   -2.1390   -1.7220    0.0000 H   0  0  0  0  0  0  0  0  0  0  0  0
   -3.7780   -2.5980    0.0000 H   0  0  0  0  0  0  0  0  0  0  0  0
   -6.7490   -2.1780    0.0000 H   0  0  0  0  0  0  0  0  0  0  0  0
   -7.8690    0.6050    0.0000 H   0  0  0  0  0  0  0  0  0  0  0  0
   -6.0190    2.9670    0.0000 H   0  0  0  0  0  0  0  0  0  0  0  0
   -3.0490    2.5460    0.0000 H   0  0  0  0  0  0  0  0  0  0  0  0
    0.2380   -2.5560    0.0000 H   0  0  0  0  0  0  0  0  0  0  0  0
    2.4220   -4.0860    0.0000 H   0  0  0  0  0  0  0  0  0  0  0  0
    5.2050   -2.9660    0.0000 H   0  0  0  0  0  0  0  0  0  0  0  0
    6.8070   -0.9200    0.0000 H   0  0  0  0  0  0  0  0  0  0  0  0
    7.2280    2.0500    0.0000 H   0  0  0  0  0  0  0  0  0  0  0  0
    4.8660    3.9000    0.0000 H   0  0  0  0  0  0  0  0  0  0  0  0
    2.0830    2.7790    0.0000 H   0  0  0  0  0  0  0  0  0  0  0  0
  1  2  1  0  0  0  0
  1 22  1  0  0  0  0
  1 23  1  0  0  0  0
  1 24  1  0  0  0  0
  2  3  1  0  0  0  0
  2 12  1  0  0  0  0
  2 25  1  1  0  0  0
  3  4  1  0  0  0  0
  3  5  1  0  0  0  0
  4 26  1  0  0  0  0
  4 27  1  0  0  0  0
  4 28  1  0  0  0  0
  5  6  1  0  0  0  0
  5 29  1  0  0  0  0
  5 30  1  0  0  0  0
  6  7  2  0  0  0  0
  6 11  1  0  0  0  0
  7  8  1  0  0  0  0
  7 31  1  0  0  0  0
  8  9  2  0  0  0  0
  8 32  1  0  0  0  0
  9 10  1  0  0  0  0
  9 33  1  0  0  0  0
 10 11  2  0  0  0  0
 10 34  1  0  0  0  0
 11 35  1  0  0  0  0
 12 13  2  0  0  0  0
 12 21  1  0  0  0  0
 13 14  1  0  0  0  0
 13 36  1  0  0  0  0
 14 15  2  0  0  0  0
 14 37  1  0  0  0  0
 15 16  1  0  0  0  0
 15 38  1  0  0  0  0
 16 17  2  0  0  0  0
 16 21  1  0  0  0  0
 17 18  1  0  0  0  0
 17 39  1  0  0  0  0
 18 19  2  0  0  0  0
 18 40  1  0  0  0  0
 19 20  1  0  0  0  0
 19 41  1  0  0  0  0
 20 21  2  0  0  0  0
 20 42  1  0  0  0  0
M  END
$$$$
