2D_structures\o32_MMV1782224_2D.pdb
 OpenBabel02252417213D

 30 32  0  0  1  0  0  0  0  0999 V2000
   -6.1460   -2.0100    0.0000 Cl  0  0  0  0  0  0  0  0  0  0  0  0
   -4.8790   -1.2070    0.0000 C   0  0  0  0  0  0  0  0  0  0  0  0
   -4.9420    0.2920    0.0000 C   0  0  0  0  0  0  0  0  0  0  0  0
   -3.6750    1.0960    0.0000 C   0  0  0  0  0  0  0  0  0  0  0  0
   -2.3460    0.4010    0.0000 C   0  0  0  0  0  0  0  0  0  0  0  0
   -1.0800    1.2040    0.0000 C   0  0  1  0  0  0  0  0  0  0  0  0
   -0.0080    2.2540    0.0000 C   0  0  0  0  0  0  0  0  0  0  0  0
    1.3210    1.5590    0.0000 S   0  0  0  0  0  0  0  0  0  0  0  0
    1.0710    0.0800    0.0000 C   0  0  0  0  0  0  0  0  0  0  0  0
    2.1210   -0.9920    0.0000 C   0  0  0  0  0  0  0  0  0  0  0  0
    1.7170   -2.4370    0.0000 C   0  0  0  0  0  0  0  0  0  0  0  0
    1.3140   -3.8810    0.0000 N   0  0  0  0  0  0  0  0  0  0  0  0
    3.5730   -0.6190    0.0000 N   0  0  0  0  0  0  0  0  0  0  0  0
    4.1260    0.7760    0.0000 C   0  0  0  0  0  0  0  0  0  0  0  0
    5.6230    0.6810    0.0000 C   0  0  0  0  0  0  0  0  0  0  0  0
    5.9960   -0.7720    0.0000 N   0  0  0  0  0  0  0  0  0  0  0  0
    4.7290   -1.5750    0.0000 C   0  0  0  0  0  0  0  0  0  0  0  0
   -0.4130   -0.1390    0.0000 S   0  0  0  0  0  0  0  0  0  0  0  0
   -2.2830   -1.0980    0.0000 C   0  0  0  0  0  0  0  0  0  0  0  0
   -0.9540   -1.7930    0.0000 Cl  0  0  0  0  0  0  0  0  0  0  0  0
   -3.5500   -1.9020    0.0000 C   0  0  0  0  0  0  0  0  0  0  0  0
   -6.2710    0.9870    0.0000 H   0  0  0  0  0  0  0  0  0  0  0  0
   -3.7380    2.5940    0.0000 H   0  0  0  0  0  0  0  0  0  0  0  0
   -2.0110    2.3800    0.0000 H   0  0  0  0  0  0  0  0  0  0  0  0
   -1.1640    3.2100    0.0000 H   0  0  0  0  0  0  0  0  0  0  0  0
    0.8220    3.5030    0.0000 H   0  0  0  0  0  0  0  0  0  0  0  0
    3.3220    2.0420    0.0000 H   0  0  0  0  0  0  0  0  0  0  0  0
    6.5790    1.8370    0.0000 H   0  0  0  0  0  0  0  0  0  0  0  0
    4.6350   -3.0720    0.0000 H   0  0  0  0  0  0  0  0  0  0  0  0
   -3.4870   -3.4000    0.0000 H   0  0  0  0  0  0  0  0  0  0  0  0
  1  2  1  0  0  0  0
  2  3  2  0  0  0  0
  2 21  1  0  0  0  0
  3  4  1  0  0  0  0
  3 22  1  0  0  0  0
  4  5  2  0  0  0  0
  4 23  1  0  0  0  0
  5  6  1  0  0  0  0
  5 19  1  0  0  0  0
  6  7  1  0  0  0  0
  6 18  1  0  0  0  0
  6 24  1  6  0  0  0
  7  8  1  0  0  0  0
  7 25  1  0  0  0  0
  7 26  1  0  0  0  0
  8  9  1  0  0  0  0
  9 10  2  0  0  0  0
  9 18  1  0  0  0  0
 10 11  1  0  0  0  0
 10 13  1  0  0  0  0
 11 12  3  0  0  0  0
 13 14  1  0  0  0  0
 13 17  1  0  0  0  0
 14 15  2  0  0  0  0
 14 27  1  0  0  0  0
 15 16  1  0  0  0  0
 15 28  1  0  0  0  0
 16 17  2  0  0  0  0
 17 29  1  0  0  0  0
 19 20  1  0  0  0  0
 19 21  2  0  0  0  0
 21 30  1  0  0  0  0
M  END
$$$$
