2D_structures\o35_MMV1782217_2D.pdb
 OpenBabel02252417213D

 36 38  0  0  0  0  0  0  0  0999 V2000
   -7.7880   -1.1720    0.0000 C   0  0  0  0  0  0  0  0  0  0  0  0
   -6.3180   -0.8710    0.0000 C   0  0  0  0  0  0  0  0  0  0  0  0
   -5.2100   -1.8820    0.0000 O   0  0  0  0  0  0  0  0  0  0  0  0
   -3.9060   -1.1410    0.0000 N   0  0  0  0  0  0  0  0  0  0  0  0
   -4.2080    0.3280    0.0000 C   0  0  0  0  0  0  0  0  0  0  0  0
   -3.1970    1.4360    0.0000 N   0  0  0  0  0  0  0  0  0  0  0  0
   -1.7320    1.1140    0.0000 S   0  0  0  0  0  0  0  0  0  0  0  0
   -1.4100    2.5790    0.0000 O   0  0  0  0  0  0  0  0  0  0  0  0
   -2.0540   -0.3510    0.0000 O   0  0  0  0  0  0  0  0  0  0  0  0
   -0.2670    0.7920    0.0000 C   0  0  0  0  0  0  0  0  0  0  0  0
    0.1870   -0.6370    0.0000 C   0  0  0  0  0  0  0  0  0  0  0  0
    1.6520   -0.9590    0.0000 C   0  0  0  0  0  0  0  0  0  0  0  0
    2.6630    0.1490    0.0000 C   0  0  0  0  0  0  0  0  0  0  0  0
    2.2100    1.5780    0.0000 C   0  0  0  0  0  0  0  0  0  0  0  0
    0.7450    1.9000    0.0000 C   0  0  0  0  0  0  0  0  0  0  0  0
    4.1290   -0.1730    0.0000 C   0  0  0  0  0  0  0  0  0  0  0  0
    4.5820   -1.6030    0.0000 C   0  0  0  0  0  0  0  0  0  0  0  0
    6.0470   -1.9250    0.0000 C   0  0  0  0  0  0  0  0  0  0  0  0
    7.0590   -0.8170    0.0000 C   0  0  0  0  0  0  0  0  0  0  0  0
    8.5240   -1.1390    0.0000 F   0  0  0  0  0  0  0  0  0  0  0  0
    6.6050    0.6130    0.0000 C   0  0  0  0  0  0  0  0  0  0  0  0
    5.1400    0.9350    0.0000 C   0  0  0  0  0  0  0  0  0  0  0  0
    4.6860    2.3640    0.0000 F   0  0  0  0  0  0  0  0  0  0  0  0
   -5.6990    0.4950    0.0000 C   0  0  0  0  0  0  0  0  0  0  0  0
   -9.2570   -1.4740    0.0000 H   0  0  0  0  0  0  0  0  0  0  0  0
   -8.0890    0.2970    0.0000 H   0  0  0  0  0  0  0  0  0  0  0  0
   -7.4860   -2.6420    0.0000 H   0  0  0  0  0  0  0  0  0  0  0  0
   -3.6500    2.8660    0.0000 H   0  0  0  0  0  0  0  0  0  0  0  0
   -0.8240   -1.7450    0.0000 H   0  0  0  0  0  0  0  0  0  0  0  0
    2.1060   -2.3890    0.0000 H   0  0  0  0  0  0  0  0  0  0  0  0
    3.2210    2.6860    0.0000 H   0  0  0  0  0  0  0  0  0  0  0  0
    0.2910    3.3300    0.0000 H   0  0  0  0  0  0  0  0  0  0  0  0
    3.5710   -2.7110    0.0000 H   0  0  0  0  0  0  0  0  0  0  0  0
    6.5010   -3.3550    0.0000 H   0  0  0  0  0  0  0  0  0  0  0  0
    7.6160    1.7210    0.0000 H   0  0  0  0  0  0  0  0  0  0  0  0
   -6.4400    1.8000    0.0000 H   0  0  0  0  0  0  0  0  0  0  0  0
  1  2  1  0  0  0  0
  1 25  1  0  0  0  0
  1 26  1  0  0  0  0
  1 27  1  0  0  0  0
  2  3  1  0  0  0  0
  2 24  2  0  0  0  0
  3  4  1  0  0  0  0
  4  5  2  0  0  0  0
  5  6  1  0  0  0  0
  5 24  1  0  0  0  0
  6  7  1  0  0  0  0
  6 28  1  0  0  0  0
  7  8  2  0  0  0  0
  7  9  2  0  0  0  0
  7 10  1  0  0  0  0
 10 11  2  0  0  0  0
 10 15  1  0  0  0  0
 11 12  1  0  0  0  0
 11 29  1  0  0  0  0
 12 13  2  0  0  0  0
 12 30  1  0  0  0  0
 13 14  1  0  0  0  0
 13 16  1  0  0  0  0
 14 15  2  0  0  0  0
 14 31  1  0  0  0  0
 15 32  1  0  0  0  0
 16 17  2  0  0  0  0
 16 22  1  0  0  0  0
 17 18  1  0  0  0  0
 17 33  1  0  0  0  0
 18 19  2  0  0  0  0
 18 34  1  0  0  0  0
 19 20  1  0  0  0  0
 19 21  1  0  0  0  0
 21 22  2  0  0  0  0
 21 35  1  0  0  0  0
 22 23  1  0  0  0  0
 24 36  1  0  0  0  0
M  END
$$$$
