2D_structures\o3_MMV1634494_2D.pdb
 OpenBabel02252417213D

 86 90  0  0  1  0  0  0  0  0999 V2000
   12.4070   -0.9320    0.0000 C   0  0  0  0  0  0  0  0  0  0  0  0
   11.6450   -2.2240    0.0000 N   0  0  0  0  0  0  0  0  0  0  0  0
   10.1450   -2.2100    0.0000 C   0  0  0  0  0  0  0  0  0  0  0  0
    8.6450   -2.1960    0.0000 C   0  0  0  0  0  0  0  0  0  0  0  0
    7.8830   -3.4880    0.0000 O   0  0  0  0  0  0  0  0  0  0  0  0
    7.9080   -0.8900    0.0000 O   0  0  0  0  0  0  0  0  0  0  0  0
    6.4080   -0.8760    0.0000 C   0  0  0  0  0  0  0  0  0  0  0  0
    4.9080   -0.8620    0.0000 C   0  0  0  0  0  0  0  0  0  0  0  0
    4.1460   -2.1540    0.0000 C   0  0  0  0  0  0  0  0  0  0  0  0
    2.6460   -2.1400    0.0000 C   0  0  0  0  0  0  0  0  0  0  0  0
    1.9080   -0.8340    0.0000 C   0  0  0  0  0  0  0  0  0  0  0  0
    2.6700    0.4580    0.0000 N   0  0  0  0  0  0  0  0  0  0  0  0
    4.1700    0.4440    0.0000 C   0  0  0  0  0  0  0  0  0  0  0  0
    4.9320    1.7360    0.0000 N   0  0  0  0  0  0  0  0  0  0  0  0
    6.4320    1.7220    0.0000 C   0  0  0  0  0  0  0  0  0  0  0  0
    4.1940    3.0420    0.0000 C   0  0  0  0  0  0  0  0  0  0  0  0
    4.9560    4.3340    0.0000 O   0  0  0  0  0  0  0  0  0  0  0  0
    2.6940    3.0560    0.0000 O   0  0  0  0  0  0  0  0  0  0  0  0
    1.9570    4.3620    0.0000 C   0  0  1  0  0  0  0  0  0  0  0  0
    3.2630    5.1000    0.0000 C   0  0  0  0  0  0  0  0  0  0  0  0
    0.6510    3.6240    0.0000 N   0  3  0  0  0  0  0  0  0  0  0  0
    0.4800    2.1340    0.0000 C   0  0  0  0  0  0  0  0  0  0  0  0
   -0.9900    1.8360    0.0000 N   0  0  0  0  0  0  0  0  0  0  0  0
   -1.6130    0.4720    0.0000 C   0  0  0  0  0  0  0  0  0  0  0  0
   -2.2360   -0.8930    0.0000 C   0  0  1  0  0  0  0  0  0  0  0  0
   -0.8720   -1.5160    0.0000 O   0  0  0  0  0  0  0  0  0  0  0  0
   -3.6010   -0.2700    0.0000 C   0  0  1  0  0  0  0  0  0  0  0  0
   -2.9780    1.0940    0.0000 C   0  0  0  0  0  0  0  0  0  0  0  0
   -4.9650    0.3530    0.0000 C   0  0  0  0  0  0  0  0  0  0  0  0
   -6.2710   -0.3850    0.0000 N   0  0  0  0  0  0  0  0  0  0  0  0
   -7.3770    0.6290    0.0000 C   0  0  0  0  0  0  0  0  0  0  0  0
   -6.7540    1.9940    0.0000 C   0  0  0  0  0  0  0  0  0  0  0  0
   -5.2630    1.8230    0.0000 S   0  0  0  0  0  0  0  0  0  0  0  0
   -8.8470    0.3310    0.0000 C   0  0  0  0  0  0  0  0  0  0  0  0
   -9.8400    1.4550    0.0000 C   0  0  0  0  0  0  0  0  0  0  0  0
  -11.3100    1.1570    0.0000 C   0  0  0  0  0  0  0  0  0  0  0  0
  -11.7870   -0.2650    0.0000 C   0  0  0  0  0  0  0  0  0  0  0  0
  -10.7940   -1.3890    0.0000 C   0  0  0  0  0  0  0  0  0  0  0  0
   -9.3230   -1.0910    0.0000 C   0  0  0  0  0  0  0  0  0  0  0  0
  -13.2570   -0.5630    0.0000 C   0  0  0  0  0  0  0  0  0  0  0  0
  -14.7270   -0.8610    0.0000 N   0  0  0  0  0  0  0  0  0  0  0  0
   -2.8590   -2.2580    0.0000 C   0  0  0  0  0  0  0  0  0  0  0  0
   -1.9890   -3.4790    0.0000 C   0  0  0  0  0  0  0  0  0  0  0  0
   -0.4890   -3.5200    0.0000 F   0  0  0  0  0  0  0  0  0  0  0  0
   -2.6120   -4.8440    0.0000 C   0  0  0  0  0  0  0  0  0  0  0  0
   -4.1050   -4.9870    0.0000 C   0  0  0  0  0  0  0  0  0  0  0  0
   -4.9750   -3.7650    0.0000 C   0  0  0  0  0  0  0  0  0  0  0  0
   -4.3520   -2.4000    0.0000 C   0  0  0  0  0  0  0  0  0  0  0  0
   -6.4680   -3.9080    0.0000 F   0  0  0  0  0  0  0  0  0  0  0  0
   -1.7280    3.1420    0.0000 N   0  0  0  0  0  0  0  0  0  0  0  0
   -0.7140    4.2470    0.0000 C   0  0  0  0  0  0  0  0  0  0  0  0
   13.1700    0.3590    0.0000 H   0  0  0  0  0  0  0  0  0  0  0  0
   13.6990   -1.6950    0.0000 H   0  0  0  0  0  0  0  0  0  0  0  0
   11.1150   -0.1700    0.0000 H   0  0  0  0  0  0  0  0  0  0  0  0
   12.3830   -3.5300    0.0000 H   0  0  0  0  0  0  0  0  0  0  0  0
   10.1310   -3.7100    0.0000 H   0  0  0  0  0  0  0  0  0  0  0  0
   10.1590   -0.7100    0.0000 H   0  0  0  0  0  0  0  0  0  0  0  0
    6.5120   -0.0860    0.0000 H   0  0  0  0  0  0  0  0  0  0  0  0
    6.3940   -2.3760    0.0000 H   0  0  0  0  0  0  0  0  0  0  0  0
    4.8830   -3.4600    0.0000 H   0  0  0  0  0  0  0  0  0  0  0  0
    1.8830   -3.4320    0.0000 H   0  0  0  0  0  0  0  0  0  0  0  0
    0.4080   -0.8200    0.0000 H   0  0  0  0  0  0  0  0  0  0  0  0
    7.9320    1.7080    0.0000 H   0  0  0  0  0  0  0  0  0  0  0  0
    6.5220    0.9300    0.0000 H   0  0  0  0  0  0  0  0  0  0  0  0
    6.4460    3.2220    0.0000 H   0  0  0  0  0  0  0  0  0  0  0  0
    1.2190    5.6680    0.0000 H   0  0  0  0  0  0  0  0  0  0  0  0
    4.5690    5.8380    0.0000 H   0  0  0  0  0  0  0  0  0  0  0  0
    2.5250    6.4060    0.0000 H   0  0  0  0  0  0  0  0  0  0  0  0
    4.2950    4.0110    0.0000 H   0  0  0  0  0  0  0  0  0  0  0  0
    1.5850    1.1200    0.0000 H   0  0  0  0  0  0  0  0  0  0  0  0
   -0.2490   -0.1510    0.0000 H   0  0  0  0  0  0  0  0  0  0  0  0
   -2.7860    1.4060    0.0000 H   0  0  0  0  0  0  0  0  0  0  0  0
   -0.5480   -2.9810    0.0000 H   0  0  0  0  0  0  0  0  0  0  0  0
   -4.5350   -1.4430    0.0000 H   0  0  0  0  0  0  0  0  0  0  0  0
   -2.3550    2.4590    0.0000 H   0  0  0  0  0  0  0  0  0  0  0  0
   -1.5030    0.8200    0.0000 H   0  0  0  0  0  0  0  0  0  0  0  0
   -4.3420    1.7170    0.0000 H   0  0  0  0  0  0  0  0  0  0  0  0
   -7.4910    3.3000    0.0000 H   0  0  0  0  0  0  0  0  0  0  0  0
   -9.3630    2.8770    0.0000 H   0  0  0  0  0  0  0  0  0  0  0  0
  -12.3030    2.2810    0.0000 H   0  0  0  0  0  0  0  0  0  0  0  0
  -11.2700   -2.8110    0.0000 H   0  0  0  0  0  0  0  0  0  0  0  0
   -8.3300   -2.2150    0.0000 H   0  0  0  0  0  0  0  0  0  0  0  0
   -1.7420   -6.0660    0.0000 H   0  0  0  0  0  0  0  0  0  0  0  0
   -4.7280   -6.3510    0.0000 H   0  0  0  0  0  0  0  0  0  0  0  0
   -5.2230   -1.1790    0.0000 H   0  0  0  0  0  0  0  0  0  0  0  0
   -1.0120    5.7170    0.0000 H   0  0  0  0  0  0  0  0  0  0  0  0
  1  2  1  0  0  0  0
  1 52  1  0  0  0  0
  1 53  1  0  0  0  0
  1 54  1  0  0  0  0
  2  3  1  0  0  0  0
  2 55  1  0  0  0  0
  3  4  1  0  0  0  0
  3 56  1  0  0  0  0
  3 57  1  0  0  0  0
  4  5  2  0  0  0  0
  4  6  1  0  0  0  0
  6  7  1  0  0  0  0
  7  8  1  0  0  0  0
  7 58  1  0  0  0  0
  7 59  1  0  0  0  0
  8  9  2  0  0  0  0
  8 13  1  0  0  0  0
  9 10  1  0  0  0  0
  9 60  1  0  0  0  0
 10 11  2  0  0  0  0
 10 61  1  0  0  0  0
 11 12  1  0  0  0  0
 11 62  1  0  0  0  0
 12 13  2  0  0  0  0
 13 14  1  0  0  0  0
 14 15  1  0  0  0  0
 14 16  1  0  0  0  0
 15 63  1  0  0  0  0
 15 64  1  0  0  0  0
 15 65  1  0  0  0  0
 16 17  2  0  0  0  0
 16 18  1  0  0  0  0
 18 19  1  0  0  0  0
 19 20  1  0  0  0  0
 19 21  1  0  0  0  0
 19 66  1  1  0  0  0
 20 67  1  0  0  0  0
 20 68  1  0  0  0  0
 20 69  1  0  0  0  0
 21 22  2  0  0  0  0
 21 51  1  0  0  0  0
 22 23  1  0  0  0  0
 22 70  1  0  0  0  0
 23 24  1  0  0  0  0
 23 50  1  0  0  0  0
 24 25  1  0  0  0  0
 24 71  1  0  0  0  0
 24 72  1  0  0  0  0
 25 26  1  1  0  0  0
 25 27  1  0  0  0  0
 25 42  1  0  0  0  0
 26 73  1  0  0  0  0
 27 28  1  0  0  0  0
 27 29  1  0  0  0  0
 27 74  1  1  0  0  0
 28 75  1  0  0  0  0
 28 76  1  0  0  0  0
 28 77  1  0  0  0  0
 29 30  2  0  0  0  0
 29 33  1  0  0  0  0
 30 31  1  0  0  0  0
 31 32  2  0  0  0  0
 31 34  1  0  0  0  0
 32 33  1  0  0  0  0
 32 78  1  0  0  0  0
 34 35  2  0  0  0  0
 34 39  1  0  0  0  0
 35 36  1  0  0  0  0
 35 79  1  0  0  0  0
 36 37  2  0  0  0  0
 36 80  1  0  0  0  0
 37 38  1  0  0  0  0
 37 40  1  0  0  0  0
 38 39  2  0  0  0  0
 38 81  1  0  0  0  0
 39 82  1  0  0  0  0
 40 41  3  0  0  0  0
 42 43  2  0  0  0  0
 42 48  1  0  0  0  0
 43 44  1  0  0  0  0
 43 45  1  0  0  0  0
 45 46  2  0  0  0  0
 45 83  1  0  0  0  0
 46 47  1  0  0  0  0
 46 84  1  0  0  0  0
 47 48  2  0  0  0  0
 47 49  1  0  0  0  0
 48 85  1  0  0  0  0
 50 51  2  0  0  0  0
 51 86  1  0  0  0  0
M  CHG  1  21   1
M  END
$$$$
