2D_structures\o43_MMV1782389_2D.pdb
 OpenBabel02252417213D

 19 19  0  0  0  0  0  0  0  0999 V2000
   -2.8820   -0.7240    0.0000 C   0  0  0  0  0  0  0  0  0  0  0  0
   -1.5200   -0.0970    0.0000 C   0  0  0  0  0  0  0  0  0  0  0  0
   -1.3810    1.3970    0.0000 C   0  0  0  0  0  0  0  0  0  0  0  0
   -0.0180    2.0230    0.0000 C   0  0  0  0  0  0  0  0  0  0  0  0
    0.1200    3.5170    0.0000 O   0  0  0  0  0  0  0  0  0  0  0  0
    1.2060    1.1570    0.0000 N   0  0  0  0  0  0  0  0  0  0  0  0
    2.5690    1.7830    0.0000 O   0  0  0  0  0  0  0  0  0  0  0  0
    1.0670   -0.3370    0.0000 C   0  0  0  0  0  0  0  0  0  0  0  0
   -0.2950   -0.9640    0.0000 C   0  0  0  0  0  0  0  0  0  0  0  0
    2.2920   -1.2040    0.0000 C   0  0  0  0  0  0  0  0  0  0  0  0
   -4.2450   -1.3500    0.0000 H   0  0  0  0  0  0  0  0  0  0  0  0
   -3.5090    0.6390    0.0000 H   0  0  0  0  0  0  0  0  0  0  0  0
   -2.2560   -2.0860    0.0000 H   0  0  0  0  0  0  0  0  0  0  0  0
   -2.6050    2.2640    0.0000 H   0  0  0  0  0  0  0  0  0  0  0  0
    3.7930    0.9170    0.0000 H   0  0  0  0  0  0  0  0  0  0  0  0
   -0.4340   -2.4570    0.0000 H   0  0  0  0  0  0  0  0  0  0  0  0
    3.5160   -2.0710    0.0000 H   0  0  0  0  0  0  0  0  0  0  0  0
    1.4250   -2.4280    0.0000 H   0  0  0  0  0  0  0  0  0  0  0  0
    3.1580    0.0200    0.0000 H   0  0  0  0  0  0  0  0  0  0  0  0
  1  2  1  0  0  0  0
  1 11  1  0  0  0  0
  1 12  1  0  0  0  0
  1 13  1  0  0  0  0
  2  3  2  0  0  0  0
  2  9  1  0  0  0  0
  3  4  1  0  0  0  0
  3 14  1  0  0  0  0
  4  5  2  0  0  0  0
  4  6  1  0  0  0  0
  6  7  1  0  0  0  0
  6  8  1  0  0  0  0
  7 15  1  0  0  0  0
  8  9  2  0  0  0  0
  8 10  1  0  0  0  0
  9 16  1  0  0  0  0
 10 17  1  0  0  0  0
 10 18  1  0  0  0  0
 10 19  1  0  0  0  0
M  END
$$$$
