2D_structures\o45_MMV1634557_2D.pdb
 OpenBabel02252417213D

 69 73  0  0  1  0  0  0  0  0999 V2000
    0.7830   -2.7200    0.0000 O   0  0  0  0  0  0  0  0  0  0  0  0
    2.2360   -2.3450    0.0000 C   0  0  0  0  0  0  0  0  0  0  0  0
    2.6370   -0.8990    0.0000 C   0  0  0  0  0  0  0  0  0  0  0  0
    4.0890   -0.5240    0.0000 C   0  0  0  0  0  0  0  0  0  0  0  0
    4.7010    0.8460    0.0000 N   0  0  0  0  0  0  0  0  0  0  0  0
    4.0120    2.1780    0.0000 C   0  0  0  0  0  0  0  0  0  0  0  0
    2.5410    2.4700    0.0000 C   0  0  0  0  0  0  0  0  0  0  0  0
    1.3950    1.5020    0.0000 N   0  0  0  0  0  0  0  0  0  0  0  0
    1.4380    0.0020    0.0000 C   0  0  1  0  0  0  0  0  0  0  0  0
   -0.0330    0.2940    0.0000 C   0  0  0  0  0  0  0  0  0  0  0  0
   -0.5160    1.7150    0.0000 C   0  0  0  0  0  0  0  0  0  0  0  0
   -1.9870    2.0070    0.0000 C   0  0  0  0  0  0  0  0  0  0  0  0
   -2.9760    0.8790    0.0000 C   0  0  0  0  0  0  0  0  0  0  0  0
   -4.4470    1.1710    0.0000 O   0  0  0  0  0  0  0  0  0  0  0  0
   -5.4360    0.0420    0.0000 C   0  0  0  0  0  0  0  0  0  0  0  0
   -6.4240   -1.0860    0.0000 C   0  0  0  0  0  0  0  0  0  0  0  0
   -7.8960   -0.7940    0.0000 C   0  0  0  0  0  0  0  0  0  0  0  0
   -8.8840   -1.9220    0.0000 C   0  0  0  0  0  0  0  0  0  0  0  0
   -8.4020   -3.3420    0.0000 C   0  0  0  0  0  0  0  0  0  0  0  0
   -6.9300   -3.6340    0.0000 C   0  0  0  0  0  0  0  0  0  0  0  0
   -5.9420   -2.5060    0.0000 C   0  0  0  0  0  0  0  0  0  0  0  0
   -2.4930   -0.5420    0.0000 C   0  0  0  0  0  0  0  0  0  0  0  0
   -1.0220   -0.8340    0.0000 C   0  0  0  0  0  0  0  0  0  0  0  0
   -2.4700    3.4270    0.0000 O   0  0  0  0  0  0  0  0  0  0  0  0
   -3.9410    3.7190    0.0000 C   0  0  0  0  0  0  0  0  0  0  0  0
    0.0260    2.1140    0.0000 C   0  0  0  0  0  0  0  0  0  0  0  0
   -1.1890    1.2340    0.0000 O   0  0  0  0  0  0  0  0  0  0  0  0
   -0.1290    3.6060    0.0000 C   0  0  0  0  0  0  0  0  0  0  0  0
    2.0580    3.8900    0.0000 C   0  0  0  0  0  0  0  0  0  0  0  0
    3.0470    5.0180    0.0000 C   0  0  0  0  0  0  0  0  0  0  0  0
    4.5180    4.7260    0.0000 C   0  0  0  0  0  0  0  0  0  0  0  0
    5.0010    3.3060    0.0000 C   0  0  0  0  0  0  0  0  0  0  0  0
    5.1400   -1.5940    0.0000 C   0  0  0  0  0  0  0  0  0  0  0  0
    4.7390   -3.0390    0.0000 C   0  0  0  0  0  0  0  0  0  0  0  0
    3.2870   -3.4150    0.0000 C   0  0  0  0  0  0  0  0  0  0  0  0
    6.2320   -3.1830    0.0000 C   0  0  0  0  0  0  0  0  0  0  0  0
    4.8560   -4.5350    0.0000 C   0  0  0  0  0  0  0  0  0  0  0  0
    6.2010    0.8880    0.0000 H   0  0  0  0  0  0  0  0  0  0  0  0
    0.8260   -1.3670    0.0000 H   0  0  0  0  0  0  0  0  0  0  0  0
    0.4720    2.8430    0.0000 H   0  0  0  0  0  0  0  0  0  0  0  0
   -4.3080   -0.9460    0.0000 H   0  0  0  0  0  0  0  0  0  0  0  0
   -6.5640    1.0310    0.0000 H   0  0  0  0  0  0  0  0  0  0  0  0
   -8.3780    0.6270    0.0000 H   0  0  0  0  0  0  0  0  0  0  0  0
  -10.3560   -1.6300    0.0000 H   0  0  0  0  0  0  0  0  0  0  0  0
   -9.3900   -4.4700    0.0000 H   0  0  0  0  0  0  0  0  0  0  0  0
   -6.4480   -5.0540    0.0000 H   0  0  0  0  0  0  0  0  0  0  0  0
   -4.4700   -2.7980    0.0000 H   0  0  0  0  0  0  0  0  0  0  0  0
   -3.4820   -1.6700    0.0000 H   0  0  0  0  0  0  0  0  0  0  0  0
   -0.5390   -2.2540    0.0000 H   0  0  0  0  0  0  0  0  0  0  0  0
   -5.4130    4.0110    0.0000 H   0  0  0  0  0  0  0  0  0  0  0  0
   -3.6490    5.1900    0.0000 H   0  0  0  0  0  0  0  0  0  0  0  0
   -4.2340    2.2480    0.0000 H   0  0  0  0  0  0  0  0  0  0  0  0
   -0.2830    5.0980    0.0000 H   0  0  0  0  0  0  0  0  0  0  0  0
   -1.6140    3.8170    0.0000 H   0  0  0  0  0  0  0  0  0  0  0  0
    1.2090    4.2850    0.0000 H   0  0  0  0  0  0  0  0  0  0  0  0
    0.6330    4.3590    0.0000 H   0  0  0  0  0  0  0  0  0  0  0  0
    2.5640    6.4390    0.0000 H   0  0  0  0  0  0  0  0  0  0  0  0
    5.5070    5.8540    0.0000 H   0  0  0  0  0  0  0  0  0  0  0  0
    6.4720    3.0140    0.0000 H   0  0  0  0  0  0  0  0  0  0  0  0
    6.0110   -0.3730    0.0000 H   0  0  0  0  0  0  0  0  0  0  0  0
    6.5630   -2.0700    0.0000 H   0  0  0  0  0  0  0  0  0  0  0  0
    3.7370   -4.8450    0.0000 H   0  0  0  0  0  0  0  0  0  0  0  0
    2.0500   -4.2640    0.0000 H   0  0  0  0  0  0  0  0  0  0  0  0
    7.7250   -3.3280    0.0000 H   0  0  0  0  0  0  0  0  0  0  0  0
    6.2710   -4.6830    0.0000 H   0  0  0  0  0  0  0  0  0  0  0  0
    6.5570   -1.7190    0.0000 H   0  0  0  0  0  0  0  0  0  0  0  0
    4.9740   -6.0300    0.0000 H   0  0  0  0  0  0  0  0  0  0  0  0
    3.3860   -4.8340    0.0000 H   0  0  0  0  0  0  0  0  0  0  0  0
    6.3550   -4.6010    0.0000 H   0  0  0  0  0  0  0  0  0  0  0  0
  1  2  2  0  0  0  0
  2  3  1  0  0  0  0
  2 35  1  0  0  0  0
  3  4  2  0  0  0  0
  3  9  1  0  0  0  0
  4  5  1  0  0  0  0
  4 33  1  0  0  0  0
  5  6  1  0  0  0  0
  5 38  1  0  0  0  0
  6  7  2  0  0  0  0
  6 32  1  0  0  0  0
  7  8  1  0  0  0  0
  7 29  1  0  0  0  0
  8  9  1  0  0  0  0
  8 26  1  0  0  0  0
  9 10  1  0  0  0  0
  9 39  1  1  0  0  0
 10 11  2  0  0  0  0
 10 23  1  0  0  0  0
 11 12  1  0  0  0  0
 11 40  1  0  0  0  0
 12 13  2  0  0  0  0
 12 24  1  0  0  0  0
 13 14  1  0  0  0  0
 13 22  1  0  0  0  0
 14 15  1  0  0  0  0
 15 16  1  0  0  0  0
 15 41  1  0  0  0  0
 15 42  1  0  0  0  0
 16 17  2  0  0  0  0
 16 21  1  0  0  0  0
 17 18  1  0  0  0  0
 17 43  1  0  0  0  0
 18 19  2  0  0  0  0
 18 44  1  0  0  0  0
 19 20  1  0  0  0  0
 19 45  1  0  0  0  0
 20 21  2  0  0  0  0
 20 46  1  0  0  0  0
 21 47  1  0  0  0  0
 22 23  2  0  0  0  0
 22 48  1  0  0  0  0
 23 49  1  0  0  0  0
 24 25  1  0  0  0  0
 25 50  1  0  0  0  0
 25 51  1  0  0  0  0
 25 52  1  0  0  0  0
 26 27  2  0  0  0  0
 26 28  1  0  0  0  0
 28 53  1  0  0  0  0
 28 54  1  0  0  0  0
 28 55  1  0  0  0  0
 29 30  2  0  0  0  0
 29 56  1  0  0  0  0
 30 31  1  0  0  0  0
 30 57  1  0  0  0  0
 31 32  2  0  0  0  0
 31 58  1  0  0  0  0
 32 59  1  0  0  0  0
 33 34  1  0  0  0  0
 33 60  1  0  0  0  0
 33 61  1  0  0  0  0
 34 35  1  0  0  0  0
 34 36  1  0  0  0  0
 34 37  1  0  0  0  0
 35 62  1  0  0  0  0
 35 63  1  0  0  0  0
 36 64  1  0  0  0  0
 36 65  1  0  0  0  0
 36 66  1  0  0  0  0
 37 67  1  0  0  0  0
 37 68  1  0  0  0  0
 37 69  1  0  0  0  0
M  END
$$$$
