2D_structures\o46_MMV030787_2D.pdb
 OpenBabel02252417213D

 50 53  0  0  1  0  0  0  0  0999 V2000
   -9.0430   -1.0270    0.0000 F   0  0  0  0  0  0  0  0  0  0  0  0
   -7.5520   -1.1840    0.0000 C   0  0  0  0  0  0  0  0  0  0  0  0
   -6.6700    0.0300    0.0000 C   0  0  0  0  0  0  0  0  0  0  0  0
   -5.1780   -0.1270    0.0000 C   0  0  0  0  0  0  0  0  0  0  0  0
   -4.5680   -1.4970    0.0000 C   0  0  0  0  0  0  0  0  0  0  0  0
   -5.4490   -2.7100    0.0000 C   0  0  0  0  0  0  0  0  0  0  0  0
   -6.9410   -2.5540    0.0000 C   0  0  0  0  0  0  0  0  0  0  0  0
   -3.0760   -1.6530    0.0000 N   0  0  0  0  0  0  0  0  0  0  0  0
   -2.1950   -0.4400    0.0000 C   0  0  0  0  0  0  0  0  0  0  0  0
   -0.7030   -0.5960    0.0000 N   0  0  0  0  0  0  0  0  0  0  0  0
    0.1780    0.6180    0.0000 C   0  0  0  0  0  0  0  0  0  0  0  0
    1.6700    0.4610    0.0000 N   0  0  0  0  0  0  0  0  0  0  0  0
    2.2810   -0.9090    0.0000 C   0  0  1  0  0  0  0  0  0  0  0  0
    2.3860   -2.4050    0.0000 C   0  0  0  0  0  0  0  0  0  0  0  0
    3.7720   -1.0660    0.0000 C   0  0  0  0  0  0  0  0  0  0  0  0
    4.6540    0.1480    0.0000 C   0  0  0  0  0  0  0  0  0  0  0  0
    4.0440    1.5180    0.0000 C   0  0  0  0  0  0  0  0  0  0  0  0
    2.5520    1.6750    0.0000 C   0  0  0  0  0  0  0  0  0  0  0  0
    6.1460   -0.0080    0.0000 C   0  0  0  0  0  0  0  0  0  0  0  0
    6.7560   -1.3790    0.0000 C   0  0  0  0  0  0  0  0  0  0  0  0
    5.8750   -2.5920    0.0000 C   0  0  0  0  0  0  0  0  0  0  0  0
    4.3830   -2.4360    0.0000 C   0  0  0  0  0  0  0  0  0  0  0  0
   -0.4320    1.9880    0.0000 C   0  0  0  0  0  0  0  0  0  0  0  0
   -1.9240    2.1440    0.0000 C   0  0  0  0  0  0  0  0  0  0  0  0
   -2.5340    3.5150    0.0000 C   0  0  0  0  0  0  0  0  0  0  0  0
   -2.8050    0.9310    0.0000 N   0  0  0  0  0  0  0  0  0  0  0  0
    0.4490    3.2020    0.0000 C   0  0  0  0  0  0  0  0  0  0  0  0
   -7.2810    1.4000    0.0000 H   0  0  0  0  0  0  0  0  0  0  0  0
   -4.2970    1.0870    0.0000 H   0  0  0  0  0  0  0  0  0  0  0  0
   -4.8390   -4.0810    0.0000 H   0  0  0  0  0  0  0  0  0  0  0  0
   -7.8230   -3.7680    0.0000 H   0  0  0  0  0  0  0  0  0  0  0  0
   -2.4660   -3.0230    0.0000 H   0  0  0  0  0  0  0  0  0  0  0  0
    0.8250   -1.2720    0.0000 H   0  0  0  0  0  0  0  0  0  0  0  0
    2.4910   -3.9020    0.0000 H   0  0  0  0  0  0  0  0  0  0  0  0
    0.8890   -2.5100    0.0000 H   0  0  0  0  0  0  0  0  0  0  0  0
    3.5820   -2.6160    0.0000 H   0  0  0  0  0  0  0  0  0  0  0  0
    3.9390    3.0150    0.0000 H   0  0  0  0  0  0  0  0  0  0  0  0
    5.4990    1.8820    0.0000 H   0  0  0  0  0  0  0  0  0  0  0  0
    1.7980    1.9340    0.0000 H   0  0  0  0  0  0  0  0  0  0  0  0
    2.9650    3.1170    0.0000 H   0  0  0  0  0  0  0  0  0  0  0  0
    7.0270    1.2050    0.0000 H   0  0  0  0  0  0  0  0  0  0  0  0
    8.2480   -1.5350    0.0000 H   0  0  0  0  0  0  0  0  0  0  0  0
    6.4850   -3.9620    0.0000 H   0  0  0  0  0  0  0  0  0  0  0  0
    3.5010   -3.6490    0.0000 H   0  0  0  0  0  0  0  0  0  0  0  0
   -3.1450    4.8850    0.0000 H   0  0  0  0  0  0  0  0  0  0  0  0
   -3.9040    2.9040    0.0000 H   0  0  0  0  0  0  0  0  0  0  0  0
   -1.4930    4.1410    0.0000 H   0  0  0  0  0  0  0  0  0  0  0  0
    1.3310    4.4150    0.0000 H   0  0  0  0  0  0  0  0  0  0  0  0
   -0.4390    4.0300    0.0000 H   0  0  0  0  0  0  0  0  0  0  0  0
    1.0330    2.6580    0.0000 H   0  0  0  0  0  0  0  0  0  0  0  0
  1  2  1  0  0  0  0
  2  3  2  0  0  0  0
  2  7  1  0  0  0  0
  3  4  1  0  0  0  0
  3 28  1  0  0  0  0
  4  5  2  0  0  0  0
  4 29  1  0  0  0  0
  5  6  1  0  0  0  0
  5  8  1  0  0  0  0
  6  7  2  0  0  0  0
  6 30  1  0  0  0  0
  7 31  1  0  0  0  0
  8  9  1  0  0  0  0
  8 32  1  0  0  0  0
  9 10  2  0  0  0  0
  9 26  1  0  0  0  0
 10 11  1  0  0  0  0
 11 12  1  0  0  0  0
 11 23  2  0  0  0  0
 12 13  1  0  0  0  0
 12 18  1  0  0  0  0
 13 14  1  0  0  0  0
 13 15  1  0  0  0  0
 13 33  1  1  0  0  0
 14 34  1  0  0  0  0
 14 35  1  0  0  0  0
 14 36  1  0  0  0  0
 15 16  2  0  0  0  0
 15 22  1  0  0  0  0
 16 17  1  0  0  0  0
 16 19  1  0  0  0  0
 17 18  1  0  0  0  0
 17 37  1  0  0  0  0
 17 38  1  0  0  0  0
 18 39  1  0  0  0  0
 18 40  1  0  0  0  0
 19 20  2  0  0  0  0
 19 41  1  0  0  0  0
 20 21  1  0  0  0  0
 20 42  1  0  0  0  0
 21 22  2  0  0  0  0
 21 43  1  0  0  0  0
 22 44  1  0  0  0  0
 23 24  1  0  0  0  0
 23 27  1  0  0  0  0
 24 25  1  0  0  0  0
 24 26  2  0  0  0  0
 25 45  1  0  0  0  0
 25 46  1  0  0  0  0
 25 47  1  0  0  0  0
 27 48  1  0  0  0  0
 27 49  1  0  0  0  0
 27 50  1  0  0  0  0
M  END
$$$$
