2D_structures\o53_MMV1581553_2D.pdb
 OpenBabel02252417213D

 46 49  0  0  0  0  0  0  0  0999 V2000
    7.4710   -3.2730    0.0000 C   0  0  0  0  0  0  0  0  0  0  0  0
    7.5510   -1.7750    0.0000 O   0  0  0  0  0  0  0  0  0  0  0  0
    6.2940   -0.9570    0.0000 C   0  0  0  0  0  0  0  0  0  0  0  0
    6.3740    0.5410    0.0000 C   0  0  0  0  0  0  0  0  0  0  0  0
    5.1160    1.3590    0.0000 C   0  0  0  0  0  0  0  0  0  0  0  0
    3.7790    0.6790    0.0000 C   0  0  0  0  0  0  0  0  0  0  0  0
    3.6990   -0.8190    0.0000 C   0  0  0  0  0  0  0  0  0  0  0  0
    4.9570   -1.6370    0.0000 C   0  0  0  0  0  0  0  0  0  0  0  0
    2.2500   -1.2050    0.0000 C   0  0  0  0  0  0  0  0  0  0  0  0
    1.4340    0.0530    0.0000 C   0  0  0  0  0  0  0  0  0  0  0  0
   -0.0630    0.1330    0.0000 C   0  0  0  0  0  0  0  0  0  0  0  0
   -1.5610    0.2130    0.0000 N   0  0  0  0  0  0  0  0  0  0  0  0
   -2.3790   -1.0440    0.0000 C   0  0  0  0  0  0  0  0  0  0  0  0
   -1.7000   -2.3810    0.0000 O   0  0  0  0  0  0  0  0  0  0  0  0
   -3.8770   -0.9640    0.0000 C   0  0  0  0  0  0  0  0  0  0  0  0
   -4.8220   -2.1290    0.0000 O   0  0  0  0  0  0  0  0  0  0  0  0
   -6.2220   -1.5900    0.0000 C   0  0  0  0  0  0  0  0  0  0  0  0
   -7.5590   -2.2700    0.0000 C   0  0  0  0  0  0  0  0  0  0  0  0
   -8.8170   -1.4520    0.0000 C   0  0  0  0  0  0  0  0  0  0  0  0
   -8.7370    0.0460    0.0000 C   0  0  0  0  0  0  0  0  0  0  0  0
   -7.4000    0.7260    0.0000 C   0  0  0  0  0  0  0  0  0  0  0  0
   -6.1420   -0.0920    0.0000 C   0  0  0  0  0  0  0  0  0  0  0  0
   -4.6930    0.2950    0.0000 C   0  0  0  0  0  0  0  0  0  0  0  0
    2.3790    1.2180    0.0000 N   0  0  0  0  0  0  0  0  0  0  0  0
    1.9930    2.6670    0.0000 C   0  0  0  0  0  0  0  0  0  0  0  0
    1.6060    4.1170    0.0000 C   0  0  0  0  0  0  0  0  0  0  0  0
    0.1570    4.5060    0.0000 O   0  0  0  0  0  0  0  0  0  0  0  0
    2.6670    5.1760    0.0000 O   0  0  0  0  0  0  0  0  0  0  0  0
    7.3910   -4.7710    0.0000 H   0  0  0  0  0  0  0  0  0  0  0  0
    8.9690   -3.3530    0.0000 H   0  0  0  0  0  0  0  0  0  0  0  0
    5.9730   -3.1930    0.0000 H   0  0  0  0  0  0  0  0  0  0  0  0
    7.7110    1.2210    0.0000 H   0  0  0  0  0  0  0  0  0  0  0  0
    5.1960    2.8570    0.0000 H   0  0  0  0  0  0  0  0  0  0  0  0
    4.8770   -3.1350    0.0000 H   0  0  0  0  0  0  0  0  0  0  0  0
    1.7110   -2.6050    0.0000 H   0  0  0  0  0  0  0  0  0  0  0  0
   -0.1670    1.6300    0.0000 H   0  0  0  0  0  0  0  0  0  0  0  0
   -0.1430   -1.3650    0.0000 H   0  0  0  0  0  0  0  0  0  0  0  0
   -2.2410    1.5500    0.0000 H   0  0  0  0  0  0  0  0  0  0  0  0
   -7.6390   -3.7680    0.0000 H   0  0  0  0  0  0  0  0  0  0  0  0
  -10.1540   -2.1310    0.0000 H   0  0  0  0  0  0  0  0  0  0  0  0
   -9.9940    0.8640    0.0000 H   0  0  0  0  0  0  0  0  0  0  0  0
   -7.3200    2.2240    0.0000 H   0  0  0  0  0  0  0  0  0  0  0  0
   -4.1540    1.6940    0.0000 H   0  0  0  0  0  0  0  0  0  0  0  0
    0.5070    2.4600    0.0000 H   0  0  0  0  0  0  0  0  0  0  0  0
    3.4420    3.0540    0.0000 H   0  0  0  0  0  0  0  0  0  0  0  0
    2.2810    6.6260    0.0000 H   0  0  0  0  0  0  0  0  0  0  0  0
  1  2  1  0  0  0  0
  1 29  1  0  0  0  0
  1 30  1  0  0  0  0
  1 31  1  0  0  0  0
  2  3  1  0  0  0  0
  3  4  2  0  0  0  0
  3  8  1  0  0  0  0
  4  5  1  0  0  0  0
  4 32  1  0  0  0  0
  5  6  2  0  0  0  0
  5 33  1  0  0  0  0
  6  7  1  0  0  0  0
  6 24  1  0  0  0  0
  7  8  2  0  0  0  0
  7  9  1  0  0  0  0
  8 34  1  0  0  0  0
  9 10  2  0  0  0  0
  9 35  1  0  0  0  0
 10 11  1  0  0  0  0
 10 24  1  0  0  0  0
 11 12  1  0  0  0  0
 11 36  1  0  0  0  0
 11 37  1  0  0  0  0
 12 13  1  0  0  0  0
 12 38  1  0  0  0  0
 13 14  2  0  0  0  0
 13 15  1  0  0  0  0
 15 16  1  0  0  0  0
 15 23  2  0  0  0  0
 16 17  1  0  0  0  0
 17 18  2  0  0  0  0
 17 22  1  0  0  0  0
 18 19  1  0  0  0  0
 18 39  1  0  0  0  0
 19 20  2  0  0  0  0
 19 40  1  0  0  0  0
 20 21  1  0  0  0  0
 20 41  1  0  0  0  0
 21 22  2  0  0  0  0
 21 42  1  0  0  0  0
 22 23  1  0  0  0  0
 23 43  1  0  0  0  0
 24 25  1  0  0  0  0
 25 26  1  0  0  0  0
 25 44  1  0  0  0  0
 25 45  1  0  0  0  0
 26 27  2  0  0  0  0
 26 28  1  0  0  0  0
 28 46  1  0  0  0  0
M  END
$$$$
