2D_structures\o58_MMV1578925_2D.pdb
 OpenBabel02252417213D

 39 41  0  0  1  0  0  0  0  0999 V2000
    3.5040   -1.5140    0.0000 C   0  0  0  0  0  0  0  0  0  0  0  0
    2.0690   -1.0780    0.0000 C   0  0  1  0  0  0  0  0  0  0  0  0
    2.5050    0.3570    0.0000 O   0  0  0  0  0  0  0  0  0  0  0  0
    3.9660    0.6970    0.0000 C   0  0  0  0  0  0  0  0  0  0  0  0
    4.9910   -0.3980    0.0000 C   0  0  0  0  0  0  0  0  0  0  0  0
    6.4520   -0.0580    0.0000 C   0  0  0  0  0  0  0  0  0  0  0  0
    6.8880    1.3770    0.0000 C   0  0  0  0  0  0  0  0  0  0  0  0
    8.3490    1.7170    0.0000 Cl  0  0  0  0  0  0  0  0  0  0  0  0
    5.8630    2.4720    0.0000 C   0  0  0  0  0  0  0  0  0  0  0  0
    4.4020    2.1320    0.0000 C   0  0  0  0  0  0  0  0  0  0  0  0
    3.3770    3.2280    0.0000 Cl  0  0  0  0  0  0  0  0  0  0  0  0
    0.6330   -0.6420    0.0000 C   0  0  0  0  0  0  0  0  0  0  0  0
    0.2940    0.8190    0.0000 O   0  0  0  0  0  0  0  0  0  0  0  0
   -0.4620   -1.6670    0.0000 N   0  0  0  0  0  0  0  0  0  0  0  0
   -1.8970   -1.2300    0.0000 C   0  0  0  0  0  0  0  0  0  0  0  0
   -3.3320   -0.7940    0.0000 C   0  0  0  0  0  0  0  0  0  0  0  0
   -4.4280   -1.8190    0.0000 C   0  0  0  0  0  0  0  0  0  0  0  0
   -5.8630   -1.3830    0.0000 C   0  0  0  0  0  0  0  0  0  0  0  0
   -6.2030    0.0780    0.0000 C   0  0  0  0  0  0  0  0  0  0  0  0
   -7.5160    0.8030    0.0000 O   0  0  0  0  0  0  0  0  0  0  0  0
   -7.2320    2.2760    0.0000 C   0  0  0  0  0  0  0  0  0  0  0  0
   -5.7440    2.4610    0.0000 O   0  0  0  0  0  0  0  0  0  0  0  0
   -5.1070    1.1030    0.0000 C   0  0  0  0  0  0  0  0  0  0  0  0
   -3.6720    0.6670    0.0000 C   0  0  0  0  0  0  0  0  0  0  0  0
    4.2330   -1.8370    0.0000 H   0  0  0  0  0  0  0  0  0  0  0  0
    4.1280   -0.4720    0.0000 H   0  0  0  0  0  0  0  0  0  0  0  0
    3.0680   -2.9490    0.0000 H   0  0  0  0  0  0  0  0  0  0  0  0
    1.6330   -2.5130    0.0000 H   0  0  0  0  0  0  0  0  0  0  0  0
    4.8540   -1.1830    0.0000 H   0  0  0  0  0  0  0  0  0  0  0  0
    7.4760   -1.1530    0.0000 H   0  0  0  0  0  0  0  0  0  0  0  0
    6.2990    3.9080    0.0000 H   0  0  0  0  0  0  0  0  0  0  0  0
   -0.1220   -3.1280    0.0000 H   0  0  0  0  0  0  0  0  0  0  0  0
   -2.3330   -2.6660    0.0000 H   0  0  0  0  0  0  0  0  0  0  0  0
   -1.4610    0.2050    0.0000 H   0  0  0  0  0  0  0  0  0  0  0  0
   -4.0880   -3.2800    0.0000 H   0  0  0  0  0  0  0  0  0  0  0  0
   -6.9580   -2.4080    0.0000 H   0  0  0  0  0  0  0  0  0  0  0  0
   -8.7270    2.4040    0.0000 H   0  0  0  0  0  0  0  0  0  0  0  0
   -7.2610    3.7760    0.0000 H   0  0  0  0  0  0  0  0  0  0  0  0
   -2.5770    1.6920    0.0000 H   0  0  0  0  0  0  0  0  0  0  0  0
  1  2  1  0  0  0  0
  1 25  1  0  0  0  0
  1 26  1  0  0  0  0
  1 27  1  0  0  0  0
  2  3  1  0  0  0  0
  2 12  1  0  0  0  0
  2 28  1  1  0  0  0
  3  4  1  0  0  0  0
  4  5  2  0  0  0  0
  4 10  1  0  0  0  0
  5  6  1  0  0  0  0
  5 29  1  0  0  0  0
  6  7  2  0  0  0  0
  6 30  1  0  0  0  0
  7  8  1  0  0  0  0
  7  9  1  0  0  0  0
  9 10  2  0  0  0  0
  9 31  1  0  0  0  0
 10 11  1  0  0  0  0
 12 13  2  0  0  0  0
 12 14  1  0  0  0  0
 14 15  1  0  0  0  0
 14 32  1  0  0  0  0
 15 16  1  0  0  0  0
 15 33  1  0  0  0  0
 15 34  1  0  0  0  0
 16 17  2  0  0  0  0
 16 24  1  0  0  0  0
 17 18  1  0  0  0  0
 17 35  1  0  0  0  0
 18 19  2  0  0  0  0
 18 36  1  0  0  0  0
 19 20  1  0  0  0  0
 19 23  1  0  0  0  0
 20 21  1  0  0  0  0
 21 22  1  0  0  0  0
 21 37  1  0  0  0  0
 21 38  1  0  0  0  0
 22 23  1  0  0  0  0
 23 24  2  0  0  0  0
 24 39  1  0  0  0  0
M  END
$$$$
