2D_structures\o59_MMV1578889_2D.pdb
 OpenBabel02252417213D

 29 31  0  0  0  0  0  0  0  0999 V2000
   -6.6240    1.3770    0.0000 F   0  0  0  0  0  0  0  0  0  0  0  0
   -5.1820    0.9610    0.0000 C   0  0  0  0  0  0  0  0  0  0  0  0
   -4.1020    2.0010    0.0000 C   0  0  0  0  0  0  0  0  0  0  0  0
   -2.6600    1.5850    0.0000 C   0  0  0  0  0  0  0  0  0  0  0  0
   -2.3000    0.1290    0.0000 C   0  0  0  0  0  0  0  0  0  0  0  0
   -0.9770   -0.5780    0.0000 C   0  0  0  0  0  0  0  0  0  0  0  0
    0.3720    0.0780    0.0000 C   0  0  0  0  0  0  0  0  0  0  0  0
    1.6150   -0.7630    0.0000 C   0  0  0  0  0  0  0  0  0  0  0  0
    2.9640   -0.1080    0.0000 C   0  0  0  0  0  0  0  0  0  0  0  0
    4.2060   -0.9490    0.0000 C   0  0  0  0  0  0  0  0  0  0  0  0
    5.5550   -0.2940    0.0000 C   0  0  0  0  0  0  0  0  0  0  0  0
    5.6630    1.2020    0.0000 C   0  0  0  0  0  0  0  0  0  0  0  0
    4.4200    2.0430    0.0000 N   0  0  0  0  0  0  0  0  0  0  0  0
    3.0710    1.3880    0.0000 C   0  0  0  0  0  0  0  0  0  0  0  0
   -1.2400   -2.0540    0.0000 C   0  0  0  0  0  0  0  0  0  0  0  0
   -2.7260   -2.2600    0.0000 N   0  0  0  0  0  0  0  0  0  0  0  0
   -3.3810   -0.9110    0.0000 C   0  0  0  0  0  0  0  0  0  0  0  0
   -4.8220   -0.4950    0.0000 C   0  0  0  0  0  0  0  0  0  0  0  0
   -4.4620    3.4570    0.0000 H   0  0  0  0  0  0  0  0  0  0  0  0
   -1.5800    2.6250    0.0000 H   0  0  0  0  0  0  0  0  0  0  0  0
    0.4800    1.5740    0.0000 H   0  0  0  0  0  0  0  0  0  0  0  0
    1.5070   -2.2600    0.0000 H   0  0  0  0  0  0  0  0  0  0  0  0
    4.0990   -2.4450    0.0000 H   0  0  0  0  0  0  0  0  0  0  0  0
    6.7970   -1.1350    0.0000 H   0  0  0  0  0  0  0  0  0  0  0  0
    7.0120    1.8570    0.0000 H   0  0  0  0  0  0  0  0  0  0  0  0
    1.8290    2.2290    0.0000 H   0  0  0  0  0  0  0  0  0  0  0  0
   -0.2000   -3.1350    0.0000 H   0  0  0  0  0  0  0  0  0  0  0  0
   -3.4320   -3.5840    0.0000 H   0  0  0  0  0  0  0  0  0  0  0  0
   -5.9030   -1.5350    0.0000 H   0  0  0  0  0  0  0  0  0  0  0  0
  1  2  1  0  0  0  0
  2  3  2  0  0  0  0
  2 18  1  0  0  0  0
  3  4  1  0  0  0  0
  3 19  1  0  0  0  0
  4  5  2  0  0  0  0
  4 20  1  0  0  0  0
  5  6  1  0  0  0  0
  5 17  1  0  0  0  0
  6  7  1  0  0  0  0
  6 15  2  0  0  0  0
  7  8  2  0  0  0  0
  7 21  1  0  0  0  0
  8  9  1  0  0  0  0
  8 22  1  0  0  0  0
  9 10  2  0  0  0  0
  9 14  1  0  0  0  0
 10 11  1  0  0  0  0
 10 23  1  0  0  0  0
 11 12  2  0  0  0  0
 11 24  1  0  0  0  0
 12 13  1  0  0  0  0
 12 25  1  0  0  0  0
 13 14  2  0  0  0  0
 14 26  1  0  0  0  0
 15 16  1  0  0  0  0
 15 27  1  0  0  0  0
 16 17  1  0  0  0  0
 16 28  1  0  0  0  0
 17 18  2  0  0  0  0
 18 29  1  0  0  0  0
M  END
$$$$
