2D_structures\o68_MMV1582494_2D.pdb
 OpenBabel02252417213D

 44 46  0  0  1  0  0  0  0  0999 V2000
   -7.4160   -0.8400    0.0000 C   0  0  0  0  0  0  0  0  0  0  0  0
   -5.9510   -0.5160    0.0000 C   0  0  1  0  0  0  0  0  0  0  0  0
   -5.6280   -1.9810    0.0000 O   0  0  0  0  0  0  0  0  0  0  0  0
   -4.4870   -0.1930    0.0000 C   0  0  1  0  0  0  0  0  0  0  0  0
   -4.1630   -1.6570    0.0000 N   0  0  0  0  0  0  0  0  0  0  0  0
   -3.0220    0.1310    0.0000 C   0  0  0  0  0  0  0  0  0  0  0  0
   -2.0090   -0.9760    0.0000 O   0  0  0  0  0  0  0  0  0  0  0  0
   -2.5700    1.5610    0.0000 N   0  0  0  0  0  0  0  0  0  0  0  0
   -1.1050    1.8850    0.0000 S   0  0  0  0  0  0  0  0  0  0  0  0
   -1.4290    3.3500    0.0000 O   0  0  0  0  0  0  0  0  0  0  0  0
   -0.7820    0.4200    0.0000 O   0  0  0  0  0  0  0  0  0  0  0  0
    0.3600    2.2080    0.0000 C   0  0  0  0  0  0  0  0  0  0  0  0
    0.8120    3.6390    0.0000 C   0  0  0  0  0  0  0  0  0  0  0  0
    2.2760    3.9620    0.0000 C   0  0  0  0  0  0  0  0  0  0  0  0
    3.2890    2.8560    0.0000 C   0  0  0  0  0  0  0  0  0  0  0  0
    2.8370    1.4250    0.0000 C   0  0  0  0  0  0  0  0  0  0  0  0
    1.3720    1.1020    0.0000 C   0  0  0  0  0  0  0  0  0  0  0  0
    3.8490    0.3190    0.0000 C   0  0  0  0  0  0  0  0  0  0  0  0
    5.3140    0.6420    0.0000 C   0  0  0  0  0  0  0  0  0  0  0  0
    6.3270   -0.4640    0.0000 C   0  0  0  0  0  0  0  0  0  0  0  0
    5.8750   -1.8950    0.0000 C   0  0  0  0  0  0  0  0  0  0  0  0
    6.6350   -3.1880    0.0000 N   0  0  0  0  0  0  0  0  0  0  0  0
    5.6400   -4.3100    0.0000 N   0  0  0  0  0  0  0  0  0  0  0  0
    4.2650   -3.7110    0.0000 C   0  0  0  0  0  0  0  0  0  0  0  0
    4.4100   -2.2180    0.0000 C   0  0  0  0  0  0  0  0  0  0  0  0
    3.3970   -1.1120    0.0000 C   0  0  0  0  0  0  0  0  0  0  0  0
   -8.8810   -1.1630    0.0000 H   0  0  0  0  0  0  0  0  0  0  0  0
   -7.2730   -2.3330    0.0000 H   0  0  0  0  0  0  0  0  0  0  0  0
   -7.7400    0.6250    0.0000 H   0  0  0  0  0  0  0  0  0  0  0  0
   -6.2750    0.9480    0.0000 H   0  0  0  0  0  0  0  0  0  0  0  0
   -6.6030   -3.1210    0.0000 H   0  0  0  0  0  0  0  0  0  0  0  0
   -4.8100    1.2720    0.0000 H   0  0  0  0  0  0  0  0  0  0  0  0
   -4.9920   -2.9080    0.0000 H   0  0  0  0  0  0  0  0  0  0  0  0
   -2.7330   -2.1090    0.0000 H   0  0  0  0  0  0  0  0  0  0  0  0
   -3.5820    2.6680    0.0000 H   0  0  0  0  0  0  0  0  0  0  0  0
   -0.2010    4.7450    0.0000 H   0  0  0  0  0  0  0  0  0  0  0  0
    2.7280    5.3930    0.0000 H   0  0  0  0  0  0  0  0  0  0  0  0
    4.7540    3.1790    0.0000 H   0  0  0  0  0  0  0  0  0  0  0  0
    0.9200   -0.3280    0.0000 H   0  0  0  0  0  0  0  0  0  0  0  0
    5.7660    2.0730    0.0000 H   0  0  0  0  0  0  0  0  0  0  0  0
    7.7910   -0.1410    0.0000 H   0  0  0  0  0  0  0  0  0  0  0  0
    8.1280   -3.3320    0.0000 H   0  0  0  0  0  0  0  0  0  0  0  0
    2.9720   -4.4720    0.0000 H   0  0  0  0  0  0  0  0  0  0  0  0
    1.9330   -1.4350    0.0000 H   0  0  0  0  0  0  0  0  0  0  0  0
  1  2  1  0  0  0  0
  1 27  1  0  0  0  0
  1 28  1  0  0  0  0
  1 29  1  0  0  0  0
  2  3  1  0  0  0  0
  2  4  1  0  0  0  0
  2 30  1  1  0  0  0
  3 31  1  0  0  0  0
  4  5  1  0  0  0  0
  4  6  1  0  0  0  0
  4 32  1  1  0  0  0
  5 33  1  0  0  0  0
  5 34  1  0  0  0  0
  6  7  2  0  0  0  0
  6  8  1  0  0  0  0
  8  9  1  0  0  0  0
  8 35  1  0  0  0  0
  9 10  2  0  0  0  0
  9 11  2  0  0  0  0
  9 12  1  0  0  0  0
 12 13  2  0  0  0  0
 12 17  1  0  0  0  0
 13 14  1  0  0  0  0
 13 36  1  0  0  0  0
 14 15  2  0  0  0  0
 14 37  1  0  0  0  0
 15 16  1  0  0  0  0
 15 38  1  0  0  0  0
 16 17  2  0  0  0  0
 16 18  1  0  0  0  0
 17 39  1  0  0  0  0
 18 19  2  0  0  0  0
 18 26  1  0  0  0  0
 19 20  1  0  0  0  0
 19 40  1  0  0  0  0
 20 21  2  0  0  0  0
 20 41  1  0  0  0  0
 21 22  1  0  0  0  0
 21 25  1  0  0  0  0
 22 23  1  0  0  0  0
 22 42  1  0  0  0  0
 23 24  2  0  0  0  0
 24 25  1  0  0  0  0
 24 43  1  0  0  0  0
 25 26  2  0  0  0  0
 26 44  1  0  0  0  0
M  END
$$$$
