2D_structures\o69_MMV1582493_2D.pdb
 OpenBabel02252417213D

 36 37  0  0  1  0  0  0  0  0999 V2000
   -1.5910   -2.0950    0.0000 C   0  0  0  0  0  0  0  0  0  0  0  0
   -2.8940   -1.3520    0.0000 C   0  0  1  0  0  0  0  0  0  0  0  0
   -2.1510   -0.0490    0.0000 N   0  0  0  0  0  0  0  0  0  0  0  0
   -0.6510   -0.0410    0.0000 C   0  0  0  0  0  0  0  0  0  0  0  0
   -0.3350   -0.7730    0.0000 O   0  0  0  0  0  0  0  0  0  0  0  0
    0.0930    1.2620    0.0000 C   0  0  0  0  0  0  0  0  0  0  0  0
   -0.6640    2.5570    0.0000 C   0  0  0  0  0  0  0  0  0  0  0  0
    0.0790    3.8600    0.0000 C   0  0  0  0  0  0  0  0  0  0  0  0
    1.5790    3.8680    0.0000 C   0  0  0  0  0  0  0  0  0  0  0  0
    2.3360    2.5730    0.0000 C   0  0  0  0  0  0  0  0  0  0  0  0
    1.5930    1.2700    0.0000 C   0  0  0  0  0  0  0  0  0  0  0  0
    2.3490   -0.0260    0.0000 C   0  0  0  0  0  0  0  0  0  0  0  0
    1.6060   -1.3280    0.0000 C   0  0  0  0  0  0  0  0  0  0  0  0
    2.3630   -2.6240    0.0000 C   0  0  0  0  0  0  0  0  0  0  0  0
    3.8630   -2.6160    0.0000 C   0  0  0  0  0  0  0  0  0  0  0  0
    4.6060   -1.3130    0.0000 C   0  0  0  0  0  0  0  0  0  0  0  0
    3.8490   -0.0180    0.0000 C   0  0  0  0  0  0  0  0  0  0  0  0
   -4.1970   -0.6090    0.0000 B   0  0  0  0  0  0  0  0  0  0  0  0
   -5.4920   -1.3650    0.0000 O   0  0  0  0  0  0  0  0  0  0  0  0
   -4.2050    0.8910    0.0000 O   0  0  0  0  0  0  0  0  0  0  0  0
   -0.2880   -2.8380    0.0000 H   0  0  0  0  0  0  0  0  0  0  0  0
   -2.3340   -3.3980    0.0000 H   0  0  0  0  0  0  0  0  0  0  0  0
   -1.0400   -1.5190    0.0000 H   0  0  0  0  0  0  0  0  0  0  0  0
   -3.6370   -2.6550    0.0000 H   0  0  0  0  0  0  0  0  0  0  0  0
   -2.9070    1.2460    0.0000 H   0  0  0  0  0  0  0  0  0  0  0  0
   -2.1640    2.5490    0.0000 H   0  0  0  0  0  0  0  0  0  0  0  0
   -0.6780    5.1550    0.0000 H   0  0  0  0  0  0  0  0  0  0  0  0
    2.3220    5.1710    0.0000 H   0  0  0  0  0  0  0  0  0  0  0  0
    3.8360    2.5800    0.0000 H   0  0  0  0  0  0  0  0  0  0  0  0
    0.1180   -1.5190    0.0000 H   0  0  0  0  0  0  0  0  0  0  0  0
    1.6200   -3.9260    0.0000 H   0  0  0  0  0  0  0  0  0  0  0  0
    4.6200   -3.9110    0.0000 H   0  0  0  0  0  0  0  0  0  0  0  0
    6.1060   -1.3050    0.0000 H   0  0  0  0  0  0  0  0  0  0  0  0
    4.5930    1.2850    0.0000 H   0  0  0  0  0  0  0  0  0  0  0  0
   -6.7950   -0.6220    0.0000 H   0  0  0  0  0  0  0  0  0  0  0  0
   -5.5070    1.6350    0.0000 H   0  0  0  0  0  0  0  0  0  0  0  0
  1  2  1  0  0  0  0
  1 21  1  0  0  0  0
  1 22  1  0  0  0  0
  1 23  1  0  0  0  0
  2  3  1  0  0  0  0
  2 18  1  0  0  0  0
  2 24  1  1  0  0  0
  3  4  1  0  0  0  0
  3 25  1  0  0  0  0
  4  5  2  0  0  0  0
  4  6  1  0  0  0  0
  6  7  2  0  0  0  0
  6 11  1  0  0  0  0
  7  8  1  0  0  0  0
  7 26  1  0  0  0  0
  8  9  2  0  0  0  0
  8 27  1  0  0  0  0
  9 10  1  0  0  0  0
  9 28  1  0  0  0  0
 10 11  2  0  0  0  0
 10 29  1  0  0  0  0
 11 12  1  0  0  0  0
 12 13  2  0  0  0  0
 12 17  1  0  0  0  0
 13 14  1  0  0  0  0
 13 30  1  0  0  0  0
 14 15  2  0  0  0  0
 14 31  1  0  0  0  0
 15 16  1  0  0  0  0
 15 32  1  0  0  0  0
 16 17  2  0  0  0  0
 16 33  1  0  0  0  0
 17 34  1  0  0  0  0
 18 19  1  0  0  0  0
 18 20  1  0  0  0  0
 19 35  1  0  0  0  0
 20 36  1  0  0  0  0
M  END
$$$$
