2D_structures\o71_MMV003137_2D.pdb
 OpenBabel02252417213D

118120  0  0  1  0  0  0  0  0999 V2000
    8.0570   -3.0120    0.0000 C   0  0  0  0  0  0  0  0  0  0  0  0
    6.6030   -2.6460    0.0000 C   0  0  0  0  0  0  0  0  0  0  0  0
    5.1480   -2.2800    0.0000 C   0  0  1  0  0  0  0  0  0  0  0  0
    3.8330   -3.0020    0.0000 O   0  0  0  0  0  0  0  0  0  0  0  0
    2.3350   -3.0810    0.0000 C   0  0  0  0  0  0  0  0  0  0  0  0
    2.2610   -4.5790    0.0000 O   0  0  0  0  0  0  0  0  0  0  0  0
    0.9510   -2.5030    0.0000 C   0  0  1  0  0  0  0  0  0  0  0  0
    0.9180   -4.0020    0.0000 C   0  0  0  0  0  0  0  0  0  0  0  0
   -0.0450   -1.3810    0.0000 C   0  0  1  0  0  0  0  0  0  0  0  0
   -0.7250   -2.7180    0.0000 O   0  0  0  0  0  0  0  0  0  0  0  0
   -2.2230   -2.7970    0.0000 C   0  0  1  0  0  0  0  0  0  0  0  0
   -1.8850   -4.2580    0.0000 C   0  0  0  0  0  0  0  0  0  0  0  0
   -2.9820   -5.2820    0.0000 C   0  0  1  0  0  0  0  0  0  0  0  0
   -3.6620   -6.6190    0.0000 C   0  0  0  0  0  0  0  0  0  0  0  0
   -1.7830   -6.1840    0.0000 O   0  0  0  0  0  0  0  0  0  0  0  0
   -1.9650   -7.6730    0.0000 C   0  0  0  0  0  0  0  0  0  0  0  0
   -4.4160   -4.8440    0.0000 C   0  0  1  0  0  0  0  0  0  0  0  0
   -5.9140   -4.9230    0.0000 O   0  0  0  0  0  0  0  0  0  0  0  0
   -4.7540   -3.3830    0.0000 C   0  0  1  0  0  0  0  0  0  0  0  0
   -5.5720   -2.1250    0.0000 C   0  0  0  0  0  0  0  0  0  0  0  0
   -3.6580   -2.3590    0.0000 O   0  0  0  0  0  0  0  0  0  0  0  0
   -0.4560    0.0620    0.0000 C   0  0  1  0  0  0  0  0  0  0  0  0
   -1.6480   -0.8470    0.0000 C   0  0  0  0  0  0  0  0  0  0  0  0
   -0.1990    1.5400    0.0000 C   0  0  1  0  0  0  0  0  0  0  0  0
   -1.6690    1.2380    0.0000 O   0  0  0  0  0  0  0  0  0  0  0  0
   -2.6650    2.3600    0.0000 C   0  0  1  0  0  0  0  0  0  0  0  0
   -3.5960    1.1840    0.0000 O   0  0  0  0  0  0  0  0  0  0  0  0
   -5.0800    1.4030    0.0000 C   0  0  1  0  0  0  0  0  0  0  0  0
   -6.5500    1.1020    0.0000 C   0  0  0  0  0  0  0  0  0  0  0  0
   -5.6330    2.7980    0.0000 C   0  0  0  0  0  0  0  0  0  0  0  0
   -4.7010    3.9740    0.0000 C   0  0  1  0  0  0  0  0  0  0  0  0
   -3.2170    3.7550    0.0000 C   0  0  1  0  0  0  0  0  0  0  0  0
   -1.7480    4.0560    0.0000 O   0  0  0  0  0  0  0  0  0  0  0  0
   -4.2270    5.3970    0.0000 N   0  0  0  0  0  0  0  0  0  0  0  0
   -5.2230    6.5190    0.0000 C   0  0  0  0  0  0  0  0  0  0  0  0
   -2.7580    5.6990    0.0000 C   0  0  0  0  0  0  0  0  0  0  0  0
    0.6730    2.7600    0.0000 C   0  0  1  0  0  0  0  0  0  0  0  0
   -0.7820    3.1260    0.0000 C   0  0  0  0  0  0  0  0  0  0  0  0
    0.4820    4.2480    0.0000 O   0  0  0  0  0  0  0  0  0  0  0  0
    1.9880    3.4820    0.0000 C   0  0  0  0  0  0  0  0  0  0  0  0
    3.4860    3.5610    0.0000 C   0  0  1  0  0  0  0  0  0  0  0  0
    2.8650    4.9260    0.0000 C   0  0  0  0  0  0  0  0  0  0  0  0
    4.8700    2.9820    0.0000 C   0  0  0  0  0  0  0  0  0  0  0  0
    5.5860    4.3000    0.0000 O   0  0  0  0  0  0  0  0  0  0  0  0
    5.8650    1.8610    0.0000 C   0  0  1  0  0  0  0  0  0  0  0  0
    6.5460    3.1980    0.0000 C   0  0  0  0  0  0  0  0  0  0  0  0
    6.2760    0.4180    0.0000 C   0  0  1  0  0  0  0  0  0  0  0  0
    7.4690    1.3270    0.0000 O   0  0  0  0  0  0  0  0  0  0  0  0
    6.0200   -1.0600    0.0000 C   0  0  1  0  0  0  0  0  0  0  0  0
    7.4890   -0.7580    0.0000 C   0  0  0  0  0  0  0  0  0  0  0  0
    6.8380   -2.3180    0.0000 O   0  0  0  0  0  0  0  0  0  0  0  0
    9.5120   -3.3780    0.0000 H   0  0  0  0  0  0  0  0  0  0  0  0
    7.6920   -4.4670    0.0000 H   0  0  0  0  0  0  0  0  0  0  0  0
    8.5980   -1.6130    0.0000 H   0  0  0  0  0  0  0  0  0  0  0  0
    7.3100   -1.3230    0.0000 H   0  0  0  0  0  0  0  0  0  0  0  0
    6.2370   -4.1010    0.0000 H   0  0  0  0  0  0  0  0  0  0  0  0
    5.3390   -3.7680    0.0000 H   0  0  0  0  0  0  0  0  0  0  0  0
   -0.1780   -3.4900    0.0000 H   0  0  0  0  0  0  0  0  0  0  0  0
    0.8850   -5.5020    0.0000 H   0  0  0  0  0  0  0  0  0  0  0  0
   -0.5660   -3.7870    0.0000 H   0  0  0  0  0  0  0  0  0  0  0  0
    2.4030   -4.2180    0.0000 H   0  0  0  0  0  0  0  0  0  0  0  0
   -1.5440   -1.4190    0.0000 H   0  0  0  0  0  0  0  0  0  0  0  0
   -2.5870   -1.3420    0.0000 H   0  0  0  0  0  0  0  0  0  0  0  0
   -1.0670   -5.5160    0.0000 H   0  0  0  0  0  0  0  0  0  0  0  0
   -0.5050   -3.6720    0.0000 H   0  0  0  0  0  0  0  0  0  0  0  0
   -4.3420   -7.9560    0.0000 H   0  0  0  0  0  0  0  0  0  0  0  0
   -5.0720   -6.1060    0.0000 H   0  0  0  0  0  0  0  0  0  0  0  0
   -2.5290   -7.6020    0.0000 H   0  0  0  0  0  0  0  0  0  0  0  0
   -2.1470   -9.1620    0.0000 H   0  0  0  0  0  0  0  0  0  0  0  0
   -0.4760   -7.8550    0.0000 H   0  0  0  0  0  0  0  0  0  0  0  0
   -3.4540   -7.4910    0.0000 H   0  0  0  0  0  0  0  0  0  0  0  0
   -4.7780   -6.3000    0.0000 H   0  0  0  0  0  0  0  0  0  0  0  0
   -7.0120   -3.9010    0.0000 H   0  0  0  0  0  0  0  0  0  0  0  0
   -6.1960   -3.7970    0.0000 H   0  0  0  0  0  0  0  0  0  0  0  0
   -6.5370   -0.9770    0.0000 H   0  0  0  0  0  0  0  0  0  0  0  0
   -6.9200   -2.7830    0.0000 H   0  0  0  0  0  0  0  0  0  0  0  0
   -4.3140   -1.3070    0.0000 H   0  0  0  0  0  0  0  0  0  0  0  0
   -1.8880    0.5070    0.0000 H   0  0  0  0  0  0  0  0  0  0  0  0
   -2.8410   -1.7570    0.0000 H   0  0  0  0  0  0  0  0  0  0  0  0
   -2.5580    0.3460    0.0000 H   0  0  0  0  0  0  0  0  0  0  0  0
   -1.0550   -2.2250    0.0000 H   0  0  0  0  0  0  0  0  0  0  0  0
   -1.1640    2.6880    0.0000 H   0  0  0  0  0  0  0  0  0  0  0  0
   -1.7540    3.5520    0.0000 H   0  0  0  0  0  0  0  0  0  0  0  0
   -5.0380   -0.0960    0.0000 H   0  0  0  0  0  0  0  0  0  0  0  0
   -8.0190    0.8000    0.0000 H   0  0  0  0  0  0  0  0  0  0  0  0
   -7.0280    2.5240    0.0000 H   0  0  0  0  0  0  0  0  0  0  0  0
   -6.4290   -0.3930    0.0000 H   0  0  0  0  0  0  0  0  0  0  0  0
   -6.6280    3.9200    0.0000 H   0  0  0  0  0  0  0  0  0  0  0  0
   -6.9960    2.1740    0.0000 H   0  0  0  0  0  0  0  0  0  0  0  0
   -6.0970    4.5210    0.0000 H   0  0  0  0  0  0  0  0  0  0  0  0
   -2.8950    5.2200    0.0000 H   0  0  0  0  0  0  0  0  0  0  0  0
   -1.1040    5.4110    0.0000 H   0  0  0  0  0  0  0  0  0  0  0  0
   -6.2190    7.6400    0.0000 H   0  0  0  0  0  0  0  0  0  0  0  0
   -4.1020    7.5150    0.0000 H   0  0  0  0  0  0  0  0  0  0  0  0
   -6.4580    5.6670    0.0000 H   0  0  0  0  0  0  0  0  0  0  0  0
   -1.3360    6.1770    0.0000 H   0  0  0  0  0  0  0  0  0  0  0  0
   -3.0600    7.1680    0.0000 H   0  0  0  0  0  0  0  0  0  0  0  0
   -2.2800    4.2770    0.0000 H   0  0  0  0  0  0  0  0  0  0  0  0
   -2.2710    2.9460    0.0000 H   0  0  0  0  0  0  0  0  0  0  0  0
   -0.4160    4.5810    0.0000 H   0  0  0  0  0  0  0  0  0  0  0  0
   -1.4890    1.8030    0.0000 H   0  0  0  0  0  0  0  0  0  0  0  0
    1.6750    5.1570    0.0000 H   0  0  0  0  0  0  0  0  0  0  0  0
    0.9610    4.5760    0.0000 H   0  0  0  0  0  0  0  0  0  0  0  0
    2.2840    4.9520    0.0000 H   0  0  0  0  0  0  0  0  0  0  0  0
    4.5300    4.6380    0.0000 H   0  0  0  0  0  0  0  0  0  0  0  0
    2.2440    6.2920    0.0000 H   0  0  0  0  0  0  0  0  0  0  0  0
    4.2300    5.5470    0.0000 H   0  0  0  0  0  0  0  0  0  0  0  0
    1.4990    4.3050    0.0000 H   0  0  0  0  0  0  0  0  0  0  0  0
    7.3490    2.0810    0.0000 H   0  0  0  0  0  0  0  0  0  0  0  0
    7.2260    4.5340    0.0000 H   0  0  0  0  0  0  0  0  0  0  0  0
    7.8830    2.5170    0.0000 H   0  0  0  0  0  0  0  0  0  0  0  0
    5.3020    4.0360    0.0000 H   0  0  0  0  0  0  0  0  0  0  0  0
    7.7090   -0.0270    0.0000 H   0  0  0  0  0  0  0  0  0  0  0  0
    8.8530    0.7490    0.0000 H   0  0  0  0  0  0  0  0  0  0  0  0
    8.9590   -0.4570    0.0000 H   0  0  0  0  0  0  0  0  0  0  0  0
    7.9680   -2.1800    0.0000 H   0  0  0  0  0  0  0  0  0  0  0  0
    7.5520    0.7400    0.0000 H   0  0  0  0  0  0  0  0  0  0  0  0
    8.3350   -2.2380    0.0000 H   0  0  0  0  0  0  0  0  0  0  0  0
  1  2  1  0  0  0  0
  1 52  1  0  0  0  0
  1 53  1  0  0  0  0
  1 54  1  0  0  0  0
  2  3  1  0  0  0  0
  2 55  1  0  0  0  0
  2 56  1  0  0  0  0
  3  4  1  0  0  0  0
  3 49  1  0  0  0  0
  3 57  1  6  0  0  0
  4  5  1  0  0  0  0
  5  6  2  0  0  0  0
  5  7  1  0  0  0  0
  7  8  1  0  0  0  0
  7  9  1  0  0  0  0
  7 58  1  6  0  0  0
  8 59  1  0  0  0  0
  8 60  1  0  0  0  0
  8 61  1  0  0  0  0
  9 10  1  0  0  0  0
  9 22  1  0  0  0  0
  9 62  1  6  0  0  0
 10 11  1  0  0  0  0
 11 12  1  0  0  0  0
 11 21  1  0  0  0  0
 11 63  1  6  0  0  0
 12 13  1  0  0  0  0
 12 64  1  0  0  0  0
 12 65  1  0  0  0  0
 13 14  1  0  0  0  0
 13 15  1  1  0  0  0
 13 17  1  0  0  0  0
 14 66  1  0  0  0  0
 14 67  1  0  0  0  0
 14 68  1  0  0  0  0
 15 16  1  0  0  0  0
 16 69  1  0  0  0  0
 16 70  1  0  0  0  0
 16 71  1  0  0  0  0
 17 18  1  0  0  0  0
 17 19  1  0  0  0  0
 17 72  1  6  0  0  0
 18 73  1  0  0  0  0
 19 20  1  0  0  0  0
 19 21  1  0  0  0  0
 19 74  1  6  0  0  0
 20 75  1  0  0  0  0
 20 76  1  0  0  0  0
 20 77  1  0  0  0  0
 22 23  1  0  0  0  0
 22 24  1  0  0  0  0
 22 78  1  6  0  0  0
 23 79  1  0  0  0  0
 23 80  1  0  0  0  0
 23 81  1  0  0  0  0
 24 25  1  0  0  0  0
 24 37  1  0  0  0  0
 24 82  1  6  0  0  0
 25 26  1  0  0  0  0
 26 27  1  0  0  0  0
 26 32  1  0  0  0  0
 26 83  1  6  0  0  0
 27 28  1  0  0  0  0
 28 29  1  0  0  0  0
 28 30  1  0  0  0  0
 28 84  1  6  0  0  0
 29 85  1  0  0  0  0
 29 86  1  0  0  0  0
 29 87  1  0  0  0  0
 30 31  1  0  0  0  0
 30 88  1  0  0  0  0
 30 89  1  0  0  0  0
 31 32  1  0  0  0  0
 31 34  1  0  0  0  0
 31 90  1  1  0  0  0
 32 33  1  0  0  0  0
 32 91  1  6  0  0  0
 33 92  1  0  0  0  0
 34 35  1  0  0  0  0
 34 36  1  0  0  0  0
 35 93  1  0  0  0  0
 35 94  1  0  0  0  0
 35 95  1  0  0  0  0
 36 96  1  0  0  0  0
 36 97  1  0  0  0  0
 36 98  1  0  0  0  0
 37 38  1  0  0  0  0
 37 39  1  1  0  0  0
 37 40  1  0  0  0  0
 38 99  1  0  0  0  0
 38100  1  0  0  0  0
 38101  1  0  0  0  0
 39102  1  0  0  0  0
 40 41  1  0  0  0  0
 40103  1  0  0  0  0
 40104  1  0  0  0  0
 41 42  1  0  0  0  0
 41 43  1  0  0  0  0
 41105  1  6  0  0  0
 42106  1  0  0  0  0
 42107  1  0  0  0  0
 42108  1  0  0  0  0
 43 44  2  0  0  0  0
 43 45  1  0  0  0  0
 45 46  1  0  0  0  0
 45 47  1  0  0  0  0
 45109  1  6  0  0  0
 46110  1  0  0  0  0
 46111  1  0  0  0  0
 46112  1  0  0  0  0
 47 48  1  0  0  0  0
 47 49  1  0  0  0  0
 47113  1  6  0  0  0
 48114  1  0  0  0  0
 49 50  1  0  0  0  0
 49 51  1  6  0  0  0
 50115  1  0  0  0  0
 50116  1  0  0  0  0
 50117  1  0  0  0  0
 51118  1  0  0  0  0
M  END
$$$$
