2D_structures\o72_MMV1581552_2D.pdb
 OpenBabel02252417213D

 42 44  0  0  0  0  0  0  0  0999 V2000
   -4.1350    0.5050    0.0000 O   0  0  0  0  0  0  0  0  0  0  0  0
   -3.3620    1.7910    0.0000 C   0  0  0  0  0  0  0  0  0  0  0  0
   -4.0900    3.1030    0.0000 C   0  0  0  0  0  0  0  0  0  0  0  0
   -3.3170    4.3880    0.0000 C   0  0  0  0  0  0  0  0  0  0  0  0
   -1.8170    4.3620    0.0000 C   0  0  0  0  0  0  0  0  0  0  0  0
   -1.0450    5.6480    0.0000 Br  0  0  0  0  0  0  0  0  0  0  0  0
   -1.0900    3.0500    0.0000 C   0  0  0  0  0  0  0  0  0  0  0  0
   -1.8630    1.7650    0.0000 C   0  0  0  0  0  0  0  0  0  0  0  0
   -1.1350    0.4530    0.0000 C   0  0  0  0  0  0  0  0  0  0  0  0
   -0.4080   -0.8590    0.0000 N   0  0  0  0  0  0  0  0  0  0  0  0
    1.0920   -0.8850    0.0000 C   0  0  0  0  0  0  0  0  0  0  0  0
    1.8190   -2.1970    0.0000 O   0  0  0  0  0  0  0  0  0  0  0  0
    1.8640    0.4010    0.0000 N   0  0  0  0  0  0  0  0  0  0  0  0
    3.3640    0.3750    0.0000 C   0  0  0  0  0  0  0  0  0  0  0  0
    4.1370    1.6610    0.0000 C   0  0  0  0  0  0  0  0  0  0  0  0
    5.6360    1.6340    0.0000 C   0  0  0  0  0  0  0  0  0  0  0  0
    6.3640    0.3230    0.0000 C   0  0  0  0  0  0  0  0  0  0  0  0
    5.5910   -0.9630    0.0000 C   0  0  0  0  0  0  0  0  0  0  0  0
    4.0910   -0.9370    0.0000 C   0  0  0  0  0  0  0  0  0  0  0  0
   -1.1800   -2.1450    0.0000 C   0  0  0  0  0  0  0  0  0  0  0  0
   -2.6800   -2.1190    0.0000 C   0  0  0  0  0  0  0  0  0  0  0  0
   -3.4520   -3.4050    0.0000 C   0  0  0  0  0  0  0  0  0  0  0  0
   -2.7250   -4.7170    0.0000 C   0  0  0  0  0  0  0  0  0  0  0  0
   -3.4980   -6.0020    0.0000 F   0  0  0  0  0  0  0  0  0  0  0  0
   -1.2250   -4.7430    0.0000 C   0  0  0  0  0  0  0  0  0  0  0  0
   -0.4530   -3.4570    0.0000 C   0  0  0  0  0  0  0  0  0  0  0  0
   -5.6340    0.5310    0.0000 H   0  0  0  0  0  0  0  0  0  0  0  0
   -5.5890    3.1290    0.0000 H   0  0  0  0  0  0  0  0  0  0  0  0
   -4.0450    5.7000    0.0000 H   0  0  0  0  0  0  0  0  0  0  0  0
    0.4100    3.0240    0.0000 H   0  0  0  0  0  0  0  0  0  0  0  0
   -2.4470   -0.2750    0.0000 H   0  0  0  0  0  0  0  0  0  0  0  0
    0.1770    1.1800    0.0000 H   0  0  0  0  0  0  0  0  0  0  0  0
    1.1370    1.7130    0.0000 H   0  0  0  0  0  0  0  0  0  0  0  0
    3.4090    2.9720    0.0000 H   0  0  0  0  0  0  0  0  0  0  0  0
    6.4090    2.9200    0.0000 H   0  0  0  0  0  0  0  0  0  0  0  0
    7.8630    0.2970    0.0000 H   0  0  0  0  0  0  0  0  0  0  0  0
    6.3190   -2.2750    0.0000 H   0  0  0  0  0  0  0  0  0  0  0  0
    3.3190   -2.2230    0.0000 H   0  0  0  0  0  0  0  0  0  0  0  0
   -3.4070   -0.8070    0.0000 H   0  0  0  0  0  0  0  0  0  0  0  0
   -4.9520   -3.3790    0.0000 H   0  0  0  0  0  0  0  0  0  0  0  0
   -0.4980   -6.0540    0.0000 H   0  0  0  0  0  0  0  0  0  0  0  0
    1.0470   -3.4830    0.0000 H   0  0  0  0  0  0  0  0  0  0  0  0
  1  2  1  0  0  0  0
  1 27  1  0  0  0  0
  2  3  2  0  0  0  0
  2  8  1  0  0  0  0
  3  4  1  0  0  0  0
  3 28  1  0  0  0  0
  4  5  2  0  0  0  0
  4 29  1  0  0  0  0
  5  6  1  0  0  0  0
  5  7  1  0  0  0  0
  7  8  2  0  0  0  0
  7 30  1  0  0  0  0
  8  9  1  0  0  0  0
  9 10  1  0  0  0  0
  9 31  1  0  0  0  0
  9 32  1  0  0  0  0
 10 11  1  0  0  0  0
 10 20  1  0  0  0  0
 11 12  2  0  0  0  0
 11 13  1  0  0  0  0
 13 14  1  0  0  0  0
 13 33  1  0  0  0  0
 14 15  2  0  0  0  0
 14 19  1  0  0  0  0
 15 16  1  0  0  0  0
 15 34  1  0  0  0  0
 16 17  2  0  0  0  0
 16 35  1  0  0  0  0
 17 18  1  0  0  0  0
 17 36  1  0  0  0  0
 18 19  2  0  0  0  0
 18 37  1  0  0  0  0
 19 38  1  0  0  0  0
 20 21  2  0  0  0  0
 20 26  1  0  0  0  0
 21 22  1  0  0  0  0
 21 39  1  0  0  0  0
 22 23  2  0  0  0  0
 22 40  1  0  0  0  0
 23 24  1  0  0  0  0
 23 25  1  0  0  0  0
 25 26  2  0  0  0  0
 25 41  1  0  0  0  0
 26 42  1  0  0  0  0
M  END
$$$$
