2D_structures\o73_MMV1581551_2D.pdb
 OpenBabel02252417213D

 43 47  0  0  0  0  0  0  0  0999 V2000
   -1.8770    3.6330    0.0000 C   0  0  0  0  0  0  0  0  0  0  0  0
   -1.0550    2.3790    0.0000 C   0  0  0  0  0  0  0  0  0  0  0  0
   -1.7300    1.0390    0.0000 N   0  0  0  0  0  0  0  0  0  0  0  0
   -3.2280    0.9540    0.0000 C   0  0  0  0  0  0  0  0  0  0  0  0
   -4.0500    2.2090    0.0000 C   0  0  0  0  0  0  0  0  0  0  0  0
   -3.3750    3.5480    0.0000 N   0  0  0  0  0  0  0  0  0  0  0  0
   -0.9080   -0.2150    0.0000 C   0  0  0  0  0  0  0  0  0  0  0  0
    0.5900   -0.1300    0.0000 N   0  0  0  0  0  0  0  0  0  0  0  0
    1.4120   -1.3850    0.0000 N   0  0  0  0  0  0  0  0  0  0  0  0
    2.8950   -1.6130    0.0000 C   0  0  0  0  0  0  0  0  0  0  0  0
    3.1360   -3.0940    0.0000 N   0  0  0  0  0  0  0  0  0  0  0  0
    1.8020   -3.7800    0.0000 N   0  0  0  0  0  0  0  0  0  0  0  0
    0.7370   -2.7240    0.0000 C   0  0  0  0  0  0  0  0  0  0  0  0
   -0.7610   -2.8090    0.0000 C   0  0  0  0  0  0  0  0  0  0  0  0
   -1.4360   -4.1490    0.0000 C   0  0  0  0  0  0  0  0  0  0  0  0
   -2.9330   -4.2340    0.0000 C   0  0  0  0  0  0  0  0  0  0  0  0
   -3.7560   -2.9790    0.0000 C   0  0  0  0  0  0  0  0  0  0  0  0
   -3.0800   -1.6400    0.0000 C   0  0  0  0  0  0  0  0  0  0  0  0
   -1.5830   -1.5550    0.0000 C   0  0  0  0  0  0  0  0  0  0  0  0
    3.9510   -0.5480    0.0000 C   0  0  0  0  0  0  0  0  0  0  0  0
    5.4020   -0.9300    0.0000 C   0  0  0  0  0  0  0  0  0  0  0  0
    6.4580    0.1350    0.0000 C   0  0  0  0  0  0  0  0  0  0  0  0
    6.0630    1.5820    0.0000 C   0  0  0  0  0  0  0  0  0  0  0  0
    4.6130    1.9640    0.0000 C   0  0  0  0  0  0  0  0  0  0  0  0
    3.5570    0.8990    0.0000 C   0  0  0  0  0  0  0  0  0  0  0  0
   -2.2210    5.0930    0.0000 H   0  0  0  0  0  0  0  0  0  0  0  0
   -0.4990    4.2250    0.0000 H   0  0  0  0  0  0  0  0  0  0  0  0
    0.0380    3.4060    0.0000 H   0  0  0  0  0  0  0  0  0  0  0  0
    0.1470    1.4810    0.0000 H   0  0  0  0  0  0  0  0  0  0  0  0
   -2.8840   -0.5060    0.0000 H   0  0  0  0  0  0  0  0  0  0  0  0
   -4.6060    0.3620    0.0000 H   0  0  0  0  0  0  0  0  0  0  0  0
   -5.1420    1.1810    0.0000 H   0  0  0  0  0  0  0  0  0  0  0  0
   -5.2520    3.1060    0.0000 H   0  0  0  0  0  0  0  0  0  0  0  0
   -4.1970    4.8030    0.0000 H   0  0  0  0  0  0  0  0  0  0  0  0
   -0.6130   -5.4030    0.0000 H   0  0  0  0  0  0  0  0  0  0  0  0
   -3.6090   -5.5730    0.0000 H   0  0  0  0  0  0  0  0  0  0  0  0
   -5.2530   -3.0640    0.0000 H   0  0  0  0  0  0  0  0  0  0  0  0
   -3.9030   -0.3850    0.0000 H   0  0  0  0  0  0  0  0  0  0  0  0
    5.7960   -2.3770    0.0000 H   0  0  0  0  0  0  0  0  0  0  0  0
    7.9080   -0.2470    0.0000 H   0  0  0  0  0  0  0  0  0  0  0  0
    7.1190    2.6470    0.0000 H   0  0  0  0  0  0  0  0  0  0  0  0
    4.2180    3.4120    0.0000 H   0  0  0  0  0  0  0  0  0  0  0  0
    2.1060    1.2810    0.0000 H   0  0  0  0  0  0  0  0  0  0  0  0
  1  2  1  0  0  0  0
  1  6  1  0  0  0  0
  1 26  1  0  0  0  0
  1 27  1  0  0  0  0
  2  3  1  0  0  0  0
  2 28  1  0  0  0  0
  2 29  1  0  0  0  0
  3  4  1  0  0  0  0
  3  7  1  0  0  0  0
  4  5  1  0  0  0  0
  4 30  1  0  0  0  0
  4 31  1  0  0  0  0
  5  6  1  0  0  0  0
  5 32  1  0  0  0  0
  5 33  1  0  0  0  0
  6 34  1  0  0  0  0
  7  8  2  0  0  0  0
  7 19  1  0  0  0  0
  8  9  1  0  0  0  0
  9 10  1  0  0  0  0
  9 13  1  0  0  0  0
 10 11  2  0  0  0  0
 10 20  1  0  0  0  0
 11 12  1  0  0  0  0
 12 13  2  0  0  0  0
 13 14  1  0  0  0  0
 14 15  2  0  0  0  0
 14 19  1  0  0  0  0
 15 16  1  0  0  0  0
 15 35  1  0  0  0  0
 16 17  2  0  0  0  0
 16 36  1  0  0  0  0
 17 18  1  0  0  0  0
 17 37  1  0  0  0  0
 18 19  2  0  0  0  0
 18 38  1  0  0  0  0
 20 21  2  0  0  0  0
 20 25  1  0  0  0  0
 21 22  1  0  0  0  0
 21 39  1  0  0  0  0
 22 23  2  0  0  0  0
 22 40  1  0  0  0  0
 23 24  1  0  0  0  0
 23 41  1  0  0  0  0
 24 25  2  0  0  0  0
 24 42  1  0  0  0  0
 25 43  1  0  0  0  0
M  END
$$$$
