2D_structures\o74_MMV1580853_2D.pdb
 OpenBabel02252417213D

 68 73  0  0  0  0  0  0  0  0999 V2000
    6.3050    0.9070    0.0000 O   0  0  0  0  0  0  0  0  0  0  0  0
    5.3120   -0.2170    0.0000 C   0  0  0  0  0  0  0  0  0  0  0  0
    5.7900   -1.6390    0.0000 N   0  0  0  0  0  0  0  0  0  0  0  0
    7.2600   -1.9360    0.0000 C   0  0  0  0  0  0  0  0  0  0  0  0
    7.7380   -3.3580    0.0000 C   0  0  0  0  0  0  0  0  0  0  0  0
    9.2080   -3.6560    0.0000 C   0  0  0  0  0  0  0  0  0  0  0  0
   10.2010   -2.5310    0.0000 C   0  0  0  0  0  0  0  0  0  0  0  0
    9.7230   -1.1090    0.0000 C   0  0  0  0  0  0  0  0  0  0  0  0
    8.2530   -0.8120    0.0000 C   0  0  0  0  0  0  0  0  0  0  0  0
   10.7160    0.0150    0.0000 C   0  0  0  0  0  0  0  0  0  0  0  0
   10.3890    1.4790    0.0000 N   0  0  0  0  0  0  0  0  0  0  0  0
   11.6810    2.2420    0.0000 C   0  0  0  0  0  0  0  0  0  0  0  0
   12.8060    1.2490    0.0000 C   0  0  0  0  0  0  0  0  0  0  0  0
   12.2090   -0.1270    0.0000 N   0  0  0  0  0  0  0  0  0  0  0  0
    3.8420    0.0800    0.0000 C   0  0  0  0  0  0  0  0  0  0  0  0
    3.3650    1.5020    0.0000 C   0  0  0  0  0  0  0  0  0  0  0  0
    1.8940    1.8000    0.0000 C   0  0  0  0  0  0  0  0  0  0  0  0
    0.9020    0.6750    0.0000 C   0  0  0  0  0  0  0  0  0  0  0  0
    1.3790   -0.7470    0.0000 C   0  0  0  0  0  0  0  0  0  0  0  0
    2.8500   -1.0440    0.0000 C   0  0  0  0  0  0  0  0  0  0  0  0
   -0.5680    0.9730    0.0000 C   0  0  0  0  0  0  0  0  0  0  0  0
   -1.0460    2.3950    0.0000 C   0  0  0  0  0  0  0  0  0  0  0  0
   -2.5160    2.6920    0.0000 C   0  0  0  0  0  0  0  0  0  0  0  0
   -3.5090    1.5670    0.0000 C   0  0  0  0  0  0  0  0  0  0  0  0
   -3.0310    0.1450    0.0000 C   0  0  0  0  0  0  0  0  0  0  0  0
   -1.5610   -0.1520    0.0000 C   0  0  0  0  0  0  0  0  0  0  0  0
   -4.9790    1.8650    0.0000 C   0  0  0  0  0  0  0  0  0  0  0  0
   -5.4570    3.2870    0.0000 O   0  0  0  0  0  0  0  0  0  0  0  0
   -5.9720    0.7400    0.0000 N   0  0  0  0  0  0  0  0  0  0  0  0
   -7.4420    1.0380    0.0000 C   0  0  0  0  0  0  0  0  0  0  0  0
   -7.9200    2.4600    0.0000 C   0  0  0  0  0  0  0  0  0  0  0  0
   -9.3900    2.7570    0.0000 C   0  0  0  0  0  0  0  0  0  0  0  0
  -10.3820    1.6320    0.0000 C   0  0  0  0  0  0  0  0  0  0  0  0
   -9.9050    0.2110    0.0000 C   0  0  0  0  0  0  0  0  0  0  0  0
   -8.4350   -0.0870    0.0000 C   0  0  0  0  0  0  0  0  0  0  0  0
  -10.8980   -0.9140    0.0000 C   0  0  0  0  0  0  0  0  0  0  0  0
  -10.5710   -2.3780    0.0000 N   0  0  0  0  0  0  0  0  0  0  0  0
  -11.8630   -3.1410    0.0000 C   0  0  0  0  0  0  0  0  0  0  0  0
  -12.9870   -2.1480    0.0000 C   0  0  0  0  0  0  0  0  0  0  0  0
  -12.3910   -0.7720    0.0000 N   0  0  0  0  0  0  0  0  0  0  0  0
    4.7970   -2.7640    0.0000 H   0  0  0  0  0  0  0  0  0  0  0  0
    6.7450   -4.4830    0.0000 H   0  0  0  0  0  0  0  0  0  0  0  0
    9.6860   -5.0780    0.0000 H   0  0  0  0  0  0  0  0  0  0  0  0
   11.6710   -2.8290    0.0000 H   0  0  0  0  0  0  0  0  0  0  0  0
    7.7750    0.6100    0.0000 H   0  0  0  0  0  0  0  0  0  0  0  0
   10.7870    3.4470    0.0000 H   0  0  0  0  0  0  0  0  0  0  0  0
   12.7860    3.2570    0.0000 H   0  0  0  0  0  0  0  0  0  0  0  0
   13.6750    2.4720    0.0000 H   0  0  0  0  0  0  0  0  0  0  0  0
   14.1120    0.5120    0.0000 H   0  0  0  0  0  0  0  0  0  0  0  0
   12.9720   -1.4180    0.0000 H   0  0  0  0  0  0  0  0  0  0  0  0
    4.3570    2.6270    0.0000 H   0  0  0  0  0  0  0  0  0  0  0  0
    1.4170    3.2220    0.0000 H   0  0  0  0  0  0  0  0  0  0  0  0
    0.3870   -1.8710    0.0000 H   0  0  0  0  0  0  0  0  0  0  0  0
    3.3270   -2.4660    0.0000 H   0  0  0  0  0  0  0  0  0  0  0  0
   -0.0530    3.5190    0.0000 H   0  0  0  0  0  0  0  0  0  0  0  0
   -2.9940    4.1140    0.0000 H   0  0  0  0  0  0  0  0  0  0  0  0
   -4.0240   -0.9790    0.0000 H   0  0  0  0  0  0  0  0  0  0  0  0
   -1.0840   -1.5740    0.0000 H   0  0  0  0  0  0  0  0  0  0  0  0
   -5.4940   -0.6820    0.0000 H   0  0  0  0  0  0  0  0  0  0  0  0
   -6.9270    3.5840    0.0000 H   0  0  0  0  0  0  0  0  0  0  0  0
   -9.8670    4.1790    0.0000 H   0  0  0  0  0  0  0  0  0  0  0  0
  -11.8530    1.9300    0.0000 H   0  0  0  0  0  0  0  0  0  0  0  0
   -7.9570   -1.5090    0.0000 H   0  0  0  0  0  0  0  0  0  0  0  0
  -10.9690   -4.3460    0.0000 H   0  0  0  0  0  0  0  0  0  0  0  0
  -12.9680   -4.1550    0.0000 H   0  0  0  0  0  0  0  0  0  0  0  0
  -13.8570   -3.3700    0.0000 H   0  0  0  0  0  0  0  0  0  0  0  0
  -14.2940   -1.4110    0.0000 H   0  0  0  0  0  0  0  0  0  0  0  0
  -13.1540    0.5200    0.0000 H   0  0  0  0  0  0  0  0  0  0  0  0
  1  2  2  0  0  0  0
  2  3  1  0  0  0  0
  2 15  1  0  0  0  0
  3  4  1  0  0  0  0
  3 41  1  0  0  0  0
  4  5  2  0  0  0  0
  4  9  1  0  0  0  0
  5  6  1  0  0  0  0
  5 42  1  0  0  0  0
  6  7  2  0  0  0  0
  6 43  1  0  0  0  0
  7  8  1  0  0  0  0
  7 44  1  0  0  0  0
  8  9  2  0  0  0  0
  8 10  1  0  0  0  0
  9 45  1  0  0  0  0
 10 11  2  0  0  0  0
 10 14  1  0  0  0  0
 11 12  1  0  0  0  0
 12 13  1  0  0  0  0
 12 46  1  0  0  0  0
 12 47  1  0  0  0  0
 13 14  1  0  0  0  0
 13 48  1  0  0  0  0
 13 49  1  0  0  0  0
 14 50  1  0  0  0  0
 15 16  2  0  0  0  0
 15 20  1  0  0  0  0
 16 17  1  0  0  0  0
 16 51  1  0  0  0  0
 17 18  2  0  0  0  0
 17 52  1  0  0  0  0
 18 19  1  0  0  0  0
 18 21  1  0  0  0  0
 19 20  2  0  0  0  0
 19 53  1  0  0  0  0
 20 54  1  0  0  0  0
 21 22  2  0  0  0  0
 21 26  1  0  0  0  0
 22 23  1  0  0  0  0
 22 55  1  0  0  0  0
 23 24  2  0  0  0  0
 23 56  1  0  0  0  0
 24 25  1  0  0  0  0
 24 27  1  0  0  0  0
 25 26  2  0  0  0  0
 25 57  1  0  0  0  0
 26 58  1  0  0  0  0
 27 28  2  0  0  0  0
 27 29  1  0  0  0  0
 29 30  1  0  0  0  0
 29 59  1  0  0  0  0
 30 31  2  0  0  0  0
 30 35  1  0  0  0  0
 31 32  1  0  0  0  0
 31 60  1  0  0  0  0
 32 33  2  0  0  0  0
 32 61  1  0  0  0  0
 33 34  1  0  0  0  0
 33 62  1  0  0  0  0
 34 35  2  0  0  0  0
 34 36  1  0  0  0  0
 35 63  1  0  0  0  0
 36 37  2  0  0  0  0
 36 40  1  0  0  0  0
 37 38  1  0  0  0  0
 38 39  1  0  0  0  0
 38 64  1  0  0  0  0
 38 65  1  0  0  0  0
 39 40  1  0  0  0  0
 39 66  1  0  0  0  0
 39 67  1  0  0  0  0
 40 68  1  0  0  0  0
M  END
$$$$
