2D_structures\o75_MMV1580841_2D.pdb
 OpenBabel02252417213D

 27 28  0  0  0  0  0  0  0  0999 V2000
    4.2830    1.9130    0.0000 O   0  0  0  0  0  0  0  0  0  0  0  0
    4.6420    0.4570    0.0000 B   0  0  0  0  0  0  0  0  0  0  0  0
    6.0830    0.0390    0.0000 O   0  0  0  0  0  0  0  0  0  0  0  0
    3.5600   -0.5820    0.0000 C   0  0  0  0  0  0  0  0  0  0  0  0
    2.4780   -1.6210    0.0000 N   0  0  0  0  0  0  0  0  0  0  0  0
    1.0370   -1.2040    0.0000 S   0  0  0  0  0  0  0  0  0  0  0  0
    0.6200   -2.6450    0.0000 O   0  0  0  0  0  0  0  0  0  0  0  0
    1.4550    0.2370    0.0000 O   0  0  0  0  0  0  0  0  0  0  0  0
   -0.4030   -0.7860    0.0000 C   0  0  0  0  0  0  0  0  0  0  0  0
   -0.9120    0.6250    0.0000 C   0  0  0  0  0  0  0  0  0  0  0  0
   -2.4120    0.5760    0.0000 C   0  0  0  0  0  0  0  0  0  0  0  0
   -3.4510    1.6580    0.0000 C   0  0  0  0  0  0  0  0  0  0  0  0
   -3.0330    3.0990    0.0000 Cl  0  0  0  0  0  0  0  0  0  0  0  0
   -4.9070    1.2990    0.0000 C   0  0  0  0  0  0  0  0  0  0  0  0
   -5.3250   -0.1410    0.0000 C   0  0  0  0  0  0  0  0  0  0  0  0
   -4.2860   -1.2230    0.0000 C   0  0  0  0  0  0  0  0  0  0  0  0
   -4.7030   -2.6640    0.0000 Cl  0  0  0  0  0  0  0  0  0  0  0  0
   -2.8290   -0.8640    0.0000 C   0  0  0  0  0  0  0  0  0  0  0  0
   -1.5880   -1.7070    0.0000 S   0  0  0  0  0  0  0  0  0  0  0  0
    5.3650    2.9520    0.0000 H   0  0  0  0  0  0  0  0  0  0  0  0
    7.1650    1.0780    0.0000 H   0  0  0  0  0  0  0  0  0  0  0  0
    2.5210    0.5000    0.0000 H   0  0  0  0  0  0  0  0  0  0  0  0
    4.5990   -1.6640    0.0000 H   0  0  0  0  0  0  0  0  0  0  0  0
    2.8370   -3.0780    0.0000 H   0  0  0  0  0  0  0  0  0  0  0  0
   -0.0700    1.8660    0.0000 H   0  0  0  0  0  0  0  0  0  0  0  0
   -5.9460    2.3810    0.0000 H   0  0  0  0  0  0  0  0  0  0  0  0
   -6.7810   -0.5000    0.0000 H   0  0  0  0  0  0  0  0  0  0  0  0
  1  2  1  0  0  0  0
  1 20  1  0  0  0  0
  2  3  1  0  0  0  0
  2  4  1  0  0  0  0
  3 21  1  0  0  0  0
  4  5  1  0  0  0  0
  4 22  1  0  0  0  0
  4 23  1  0  0  0  0
  5  6  1  0  0  0  0
  5 24  1  0  0  0  0
  6  7  2  0  0  0  0
  6  8  2  0  0  0  0
  6  9  1  0  0  0  0
  9 10  2  0  0  0  0
  9 19  1  0  0  0  0
 10 11  1  0  0  0  0
 10 25  1  0  0  0  0
 11 12  2  0  0  0  0
 11 18  1  0  0  0  0
 12 13  1  0  0  0  0
 12 14  1  0  0  0  0
 14 15  2  0  0  0  0
 14 26  1  0  0  0  0
 15 16  1  0  0  0  0
 15 27  1  0  0  0  0
 16 17  1  0  0  0  0
 16 18  2  0  0  0  0
 18 19  1  0  0  0  0
M  END
$$$$
