2D_structures\o78_MMV1579787_2D.pdb
 OpenBabel02252417213D

 41 42  0  0  0  0  0  0  0  0999 V2000
   -7.5890   -1.8040    0.0000 O   0  0  0  0  0  0  0  0  0  0  0  0
   -7.9640   -0.3520    0.0000 P   0  0  0  0  0  0  0  0  0  0  0  0
   -9.4170   -0.7280    0.0000 O   0  0  0  0  0  0  0  0  0  0  0  0
   -8.3400    1.1000    0.0000 O   0  0  0  0  0  0  0  0  0  0  0  0
   -6.5120    0.0240    0.0000 C   0  0  0  0  0  0  0  0  0  0  0  0
   -5.0600    0.3990    0.0000 C   0  0  0  0  0  0  0  0  0  0  0  0
   -4.6590    1.8450    0.0000 O   0  0  0  0  0  0  0  0  0  0  0  0
   -4.0090   -0.6700    0.0000 N   0  0  0  0  0  0  0  0  0  0  0  0
   -2.5560   -0.2950    0.0000 C   0  0  0  0  0  0  0  0  0  0  0  0
   -1.1040    0.0810    0.0000 C   0  0  0  0  0  0  0  0  0  0  0  0
    0.3480    0.4570    0.0000 C   0  0  0  0  0  0  0  0  0  0  0  0
    0.7490    1.9020    0.0000 C   0  0  0  0  0  0  0  0  0  0  0  0
    2.2010    2.2780    0.0000 C   0  0  0  0  0  0  0  0  0  0  0  0
    3.2520    1.2080    0.0000 C   0  0  0  0  0  0  0  0  0  0  0  0
    2.8520   -0.2370    0.0000 C   0  0  0  0  0  0  0  0  0  0  0  0
    3.9030   -1.3070    0.0000 O   0  0  0  0  0  0  0  0  0  0  0  0
    5.3550   -0.9310    0.0000 C   0  0  0  0  0  0  0  0  0  0  0  0
    6.4070   -2.0010    0.0000 C   0  0  0  0  0  0  0  0  0  0  0  0
    7.8590   -1.6250    0.0000 C   0  0  0  0  0  0  0  0  0  0  0  0
    8.2600   -0.1800    0.0000 C   0  0  0  0  0  0  0  0  0  0  0  0
    7.2080    0.8900    0.0000 C   0  0  0  0  0  0  0  0  0  0  0  0
    5.7560    0.5140    0.0000 C   0  0  0  0  0  0  0  0  0  0  0  0
    1.3990   -0.6130    0.0000 C   0  0  0  0  0  0  0  0  0  0  0  0
   -8.6580   -2.8560    0.0000 H   0  0  0  0  0  0  0  0  0  0  0  0
   -9.7860    1.5010    0.0000 H   0  0  0  0  0  0  0  0  0  0  0  0
   -6.8880    1.4760    0.0000 H   0  0  0  0  0  0  0  0  0  0  0  0
   -6.1360   -1.4290    0.0000 H   0  0  0  0  0  0  0  0  0  0  0  0
   -4.4090   -2.1160    0.0000 H   0  0  0  0  0  0  0  0  0  0  0  0
   -2.1810   -1.7470    0.0000 H   0  0  0  0  0  0  0  0  0  0  0  0
   -2.9320    1.1580    0.0000 H   0  0  0  0  0  0  0  0  0  0  0  0
   -1.4800    1.5330    0.0000 H   0  0  0  0  0  0  0  0  0  0  0  0
   -0.7280   -1.3710    0.0000 H   0  0  0  0  0  0  0  0  0  0  0  0
   -0.3030    2.9720    0.0000 H   0  0  0  0  0  0  0  0  0  0  0  0
    2.6020    3.7240    0.0000 H   0  0  0  0  0  0  0  0  0  0  0  0
    4.1680    1.5690    0.0000 H   0  0  0  0  0  0  0  0  0  0  0  0
    6.0060   -3.4460    0.0000 H   0  0  0  0  0  0  0  0  0  0  0  0
    8.9110   -2.6950    0.0000 H   0  0  0  0  0  0  0  0  0  0  0  0
    9.7120    0.1960    0.0000 H   0  0  0  0  0  0  0  0  0  0  0  0
    7.6090    2.3360    0.0000 H   0  0  0  0  0  0  0  0  0  0  0  0
    5.1570    1.2950    0.0000 H   0  0  0  0  0  0  0  0  0  0  0  0
    0.9990   -2.0580    0.0000 H   0  0  0  0  0  0  0  0  0  0  0  0
  1  2  1  0  0  0  0
  1 24  1  0  0  0  0
  2  3  2  0  0  0  0
  2  4  1  0  0  0  0
  2  5  1  0  0  0  0
  4 25  1  0  0  0  0
  5  6  1  0  0  0  0
  5 26  1  0  0  0  0
  5 27  1  0  0  0  0
  6  7  2  0  0  0  0
  6  8  1  0  0  0  0
  8  9  1  0  0  0  0
  8 28  1  0  0  0  0
  9 10  1  0  0  0  0
  9 29  1  0  0  0  0
  9 30  1  0  0  0  0
 10 11  1  0  0  0  0
 10 31  1  0  0  0  0
 10 32  1  0  0  0  0
 11 12  2  0  0  0  0
 11 23  1  0  0  0  0
 12 13  1  0  0  0  0
 12 33  1  0  0  0  0
 13 14  2  0  0  0  0
 13 34  1  0  0  0  0
 14 15  1  0  0  0  0
 14 35  1  0  0  0  0
 15 16  1  0  0  0  0
 15 23  2  0  0  0  0
 16 17  1  0  0  0  0
 17 18  2  0  0  0  0
 17 22  1  0  0  0  0
 18 19  1  0  0  0  0
 18 36  1  0  0  0  0
 19 20  2  0  0  0  0
 19 37  1  0  0  0  0
 20 21  1  0  0  0  0
 20 38  1  0  0  0  0
 21 22  2  0  0  0  0
 21 39  1  0  0  0  0
 22 40  1  0  0  0  0
 23 41  1  0  0  0  0
M  END
$$$$
