2D_structures\o8_MMV1634491_2D.pdb
 OpenBabel02252417213D

 35 37  0  0  0  0  0  0  0  0999 V2000
    3.9960    3.2280    0.0000 Cl  0  0  0  0  0  0  0  0  0  0  0  0
    3.9650    1.7280    0.0000 C   0  0  0  0  0  0  0  0  0  0  0  0
    2.6510    1.0050    0.0000 C   0  0  0  0  0  0  0  0  0  0  0  0
    2.6210   -0.4950    0.0000 C   0  0  0  0  0  0  0  0  0  0  0  0
    3.9040   -1.2710    0.0000 C   0  0  0  0  0  0  0  0  0  0  0  0
    5.2180   -0.5480    0.0000 C   0  0  0  0  0  0  0  0  0  0  0  0
    5.2490    0.9520    0.0000 C   0  0  0  0  0  0  0  0  0  0  0  0
    6.5020   -1.3240    0.0000 Cl  0  0  0  0  0  0  0  0  0  0  0  0
    1.3680    1.7810    0.0000 C   0  0  0  0  0  0  0  0  0  0  0  0
    0.0540    1.0580    0.0000 C   0  0  0  0  0  0  0  0  0  0  0  0
    0.0230   -0.4420    0.0000 N   0  0  0  0  0  0  0  0  0  0  0  0
    1.2190   -1.3480    0.0000 C   0  0  0  0  0  0  0  0  0  0  0  0
    0.7260   -2.7650    0.0000 N   0  0  0  0  0  0  0  0  0  0  0  0
   -0.7740   -2.7340    0.0000 C   0  0  0  0  0  0  0  0  0  0  0  0
   -1.2080   -1.2990    0.0000 C   0  0  0  0  0  0  0  0  0  0  0  0
   -1.2300    1.8340    0.0000 C   0  0  0  0  0  0  0  0  0  0  0  0
   -1.1990    3.3340    0.0000 O   0  0  0  0  0  0  0  0  0  0  0  0
   -2.5440    1.1110    0.0000 C   0  0  0  0  0  0  0  0  0  0  0  0
   -3.8270    1.8870    0.0000 C   0  0  0  0  0  0  0  0  0  0  0  0
   -5.1410    1.1640    0.0000 C   0  0  0  0  0  0  0  0  0  0  0  0
   -5.1720   -0.3360    0.0000 C   0  0  0  0  0  0  0  0  0  0  0  0
   -6.4860   -1.0600    0.0000 Cl  0  0  0  0  0  0  0  0  0  0  0  0
   -3.8880   -1.1120    0.0000 C   0  0  0  0  0  0  0  0  0  0  0  0
   -2.5740   -0.3890    0.0000 C   0  0  0  0  0  0  0  0  0  0  0  0
    2.0360   -1.0370    0.0000 H   0  0  0  0  0  0  0  0  0  0  0  0
    3.8740   -2.7710    0.0000 H   0  0  0  0  0  0  0  0  0  0  0  0
    6.5630    1.6750    0.0000 H   0  0  0  0  0  0  0  0  0  0  0  0
    1.3980    3.2810    0.0000 H   0  0  0  0  0  0  0  0  0  0  0  0
    2.7170   -1.2740    0.0000 H   0  0  0  0  0  0  0  0  0  0  0  0
   -1.6800   -3.9300    0.0000 H   0  0  0  0  0  0  0  0  0  0  0  0
   -2.7020   -1.1640    0.0000 H   0  0  0  0  0  0  0  0  0  0  0  0
   -3.7970    3.3870    0.0000 H   0  0  0  0  0  0  0  0  0  0  0  0
   -6.4250    1.9400    0.0000 H   0  0  0  0  0  0  0  0  0  0  0  0
   -3.9190   -2.6120    0.0000 H   0  0  0  0  0  0  0  0  0  0  0  0
   -1.5170   -1.4530    0.0000 H   0  0  0  0  0  0  0  0  0  0  0  0
  1  2  1  0  0  0  0
  2  3  2  0  0  0  0
  2  7  1  0  0  0  0
  3  4  1  0  0  0  0
  3  9  1  0  0  0  0
  4  5  2  0  0  0  0
  4 25  1  0  0  0  0
  5  6  1  0  0  0  0
  5 26  1  0  0  0  0
  6  7  2  0  0  0  0
  6  8  1  0  0  0  0
  7 27  1  0  0  0  0
  9 10  2  0  0  0  0
  9 28  1  0  0  0  0
 10 11  1  0  0  0  0
 10 16  1  0  0  0  0
 11 12  1  0  0  0  0
 11 15  1  0  0  0  0
 12 13  2  0  0  0  0
 12 29  1  0  0  0  0
 13 14  1  0  0  0  0
 14 15  2  0  0  0  0
 14 30  1  0  0  0  0
 15 31  1  0  0  0  0
 16 17  2  0  0  0  0
 16 18  1  0  0  0  0
 18 19  2  0  0  0  0
 18 24  1  0  0  0  0
 19 20  1  0  0  0  0
 19 32  1  0  0  0  0
 20 21  2  0  0  0  0
 20 33  1  0  0  0  0
 21 22  1  0  0  0  0
 21 23  1  0  0  0  0
 23 24  2  0  0  0  0
 23 34  1  0  0  0  0
 24 35  1  0  0  0  0
M  END
$$$$
