2D_structures\o11_MMV637659_2D.pdb
 OpenBabel02272422463D

 47 50  0  0  1  0  0  0  0  0999 V2000
    3.6750   -2.4180    0.0000 C   0  0  0  0  0  0  0  0  0  0  0  0
    2.1860   -2.2360    0.0000 C   0  0  1  0  0  0  0  0  0  0  0  0
    0.7240   -2.5750    0.0000 C   0  0  0  0  0  0  0  0  0  0  0  0
   -0.2990   -1.4780    0.0000 C   0  0  0  0  0  0  0  0  0  0  0  0
    0.1380   -0.0430    0.0000 C   0  0  0  0  0  0  0  0  0  0  0  0
   -0.8850    1.0530    0.0000 C   0  0  0  0  0  0  0  0  0  0  0  0
   -2.3470    0.7150    0.0000 N   0  0  0  0  0  0  0  0  0  0  0  0
   -3.3700    1.8110    0.0000 C   0  0  0  0  0  0  0  0  0  0  0  0
   -4.8320    1.4730    0.0000 C   0  0  0  0  0  0  0  0  0  0  0  0
   -5.2690    0.0380    0.0000 C   0  0  1  0  0  0  0  0  0  0  0  0
   -6.1710   -1.1600    0.0000 O   0  0  0  0  0  0  0  0  0  0  0  0
   -4.2460   -1.0580    0.0000 C   0  0  0  0  0  0  0  0  0  0  0  0
   -2.7840   -0.7200    0.0000 C   0  0  0  0  0  0  0  0  0  0  0  0
   -0.4470    2.4880    0.0000 C   0  0  0  0  0  0  0  0  0  0  0  0
   -1.4710    3.5840    0.0000 F   0  0  0  0  0  0  0  0  0  0  0  0
    1.0140    2.8260    0.0000 C   0  0  0  0  0  0  0  0  0  0  0  0
    2.0380    1.7290    0.0000 C   0  0  0  0  0  0  0  0  0  0  0  0
    3.4990    2.0680    0.0000 C   0  0  0  0  0  0  0  0  0  0  0  0
    3.9370    3.5020    0.0000 O   0  0  0  0  0  0  0  0  0  0  0  0
    4.5230    0.9710    0.0000 C   0  0  0  0  0  0  0  0  0  0  0  0
    4.0850   -0.4630    0.0000 C   0  0  0  0  0  0  0  0  0  0  0  0
    2.6230   -0.8020    0.0000 N   0  0  0  0  0  0  0  0  0  0  0  0
    1.6000    0.2950    0.0000 C   0  0  0  0  0  0  0  0  0  0  0  0
    5.9840    1.3100    0.0000 C   0  0  0  0  0  0  0  0  0  0  0  0
    7.0080    0.2130    0.0000 O   0  0  0  0  0  0  0  0  0  0  0  0
    6.4220    2.7440    0.0000 O   0  0  0  0  0  0  0  0  0  0  0  0
    5.1640   -2.6000    0.0000 H   0  0  0  0  0  0  0  0  0  0  0  0
    4.1090   -1.2840    0.0000 H   0  0  0  0  0  0  0  0  0  0  0  0
    3.4930   -3.9070    0.0000 H   0  0  0  0  0  0  0  0  0  0  0  0
    2.2650   -3.7340    0.0000 H   0  0  0  0  0  0  0  0  0  0  0  0
    1.3110   -3.9550    0.0000 H   0  0  0  0  0  0  0  0  0  0  0  0
   -0.5330   -3.3920    0.0000 H   0  0  0  0  0  0  0  0  0  0  0  0
   -1.2010   -2.6770    0.0000 H   0  0  0  0  0  0  0  0  0  0  0  0
   -0.9600   -1.0330    0.0000 H   0  0  0  0  0  0  0  0  0  0  0  0
   -3.9570    3.1920    0.0000 H   0  0  0  0  0  0  0  0  0  0  0  0
   -2.1130    2.6290    0.0000 H   0  0  0  0  0  0  0  0  0  0  0  0
   -6.3200    1.6550    0.0000 H   0  0  0  0  0  0  0  0  0  0  0  0
   -4.9110    2.9710    0.0000 H   0  0  0  0  0  0  0  0  0  0  0  0
   -6.6060    0.7180    0.0000 H   0  0  0  0  0  0  0  0  0  0  0  0
   -7.6600   -0.9780    0.0000 H   0  0  0  0  0  0  0  0  0  0  0  0
   -3.6590   -2.4390    0.0000 H   0  0  0  0  0  0  0  0  0  0  0  0
   -5.5030   -1.8760    0.0000 H   0  0  0  0  0  0  0  0  0  0  0  0
   -1.9870   -0.7200    0.0000 H   0  0  0  0  0  0  0  0  0  0  0  0
   -2.7050   -2.2180    0.0000 H   0  0  0  0  0  0  0  0  0  0  0  0
    1.4520    4.2610    0.0000 H   0  0  0  0  0  0  0  0  0  0  0  0
    5.1080   -1.5600    0.0000 H   0  0  0  0  0  0  0  0  0  0  0  0
    7.8830    3.0820    0.0000 H   0  0  0  0  0  0  0  0  0  0  0  0
  1  2  1  0  0  0  0
  1 27  1  0  0  0  0
  1 28  1  0  0  0  0
  1 29  1  0  0  0  0
  2  3  1  0  0  0  0
  2 22  1  0  0  0  0
  2 30  1  6  0  0  0
  3  4  1  0  0  0  0
  3 31  1  0  0  0  0
  3 32  1  0  0  0  0
  4  5  1  0  0  0  0
  4 33  1  0  0  0  0
  4 34  1  0  0  0  0
  5  6  1  0  0  0  0
  5 23  2  0  0  0  0
  6  7  1  0  0  0  0
  6 14  2  0  0  0  0
  7  8  1  0  0  0  0
  7 13  1  0  0  0  0
  8  9  1  0  0  0  0
  8 35  1  0  0  0  0
  8 36  1  0  0  0  0
  9 10  1  0  0  0  0
  9 37  1  0  0  0  0
  9 38  1  0  0  0  0
 10 11  1  0  0  0  0
 10 12  1  0  0  0  0
 10 39  1  1  0  0  0
 11 40  1  0  0  0  0
 12 13  1  0  0  0  0
 12 41  1  0  0  0  0
 12 42  1  0  0  0  0
 13 43  1  0  0  0  0
 13 44  1  0  0  0  0
 14 15  1  0  0  0  0
 14 16  1  0  0  0  0
 16 17  2  0  0  0  0
 16 45  1  0  0  0  0
 17 18  1  0  0  0  0
 17 23  1  0  0  0  0
 18 19  2  0  0  0  0
 18 20  1  0  0  0  0
 20 21  2  0  0  0  0
 20 24  1  0  0  0  0
 21 22  1  0  0  0  0
 21 46  1  0  0  0  0
 22 23  1  0  0  0  0
 24 25  2  0  0  0  0
 24 26  1  0  0  0  0
 26 47  1  0  0  0  0
M  END
$$$$
