2D_structures\o19_MMV1578897_2D.pdb
 OpenBabel02272422463D

 30 31  0  0  0  0  0  0  0  0999 V2000
   -5.7860   -0.3100    0.0000 C   0  0  0  0  0  0  0  0  0  0  0  0
   -4.3000   -0.1070    0.0000 C   0  0  0  0  0  0  0  0  0  0  0  0
   -3.7330    1.2820    0.0000 C   0  0  0  0  0  0  0  0  0  0  0  0
   -2.2470    1.4850    0.0000 C   0  0  0  0  0  0  0  0  0  0  0  0
   -1.3280    0.2990    0.0000 C   0  0  0  0  0  0  0  0  0  0  0  0
    0.1580    0.5020    0.0000 N   0  0  0  0  0  0  0  0  0  0  0  0
    1.0770   -0.6830    0.0000 C   0  0  0  0  0  0  0  0  0  0  0  0
    0.5100   -2.0720    0.0000 O   0  0  0  0  0  0  0  0  0  0  0  0
    2.5640   -0.4800    0.0000 C   0  0  0  0  0  0  0  0  0  0  0  0
    3.4830   -1.6660    0.0000 C   0  0  0  0  0  0  0  0  0  0  0  0
    4.9690   -1.4620    0.0000 C   0  0  0  0  0  0  0  0  0  0  0  0
    5.8880   -2.6480    0.0000 Cl  0  0  0  0  0  0  0  0  0  0  0  0
    5.5360   -0.0740    0.0000 C   0  0  0  0  0  0  0  0  0  0  0  0
    4.6170    1.1120    0.0000 C   0  0  0  0  0  0  0  0  0  0  0  0
    3.1310    0.9090    0.0000 C   0  0  0  0  0  0  0  0  0  0  0  0
    2.2120    2.0940    0.0000 O   0  0  0  0  0  0  0  0  0  0  0  0
   -1.8950   -1.0890    0.0000 C   0  0  0  0  0  0  0  0  0  0  0  0
   -3.3810   -1.2920    0.0000 C   0  0  0  0  0  0  0  0  0  0  0  0
   -7.2730   -0.5130    0.0000 H   0  0  0  0  0  0  0  0  0  0  0  0
   -5.9890    1.1760    0.0000 H   0  0  0  0  0  0  0  0  0  0  0  0
   -5.5830   -1.7960    0.0000 H   0  0  0  0  0  0  0  0  0  0  0  0
   -4.6520    2.4670    0.0000 H   0  0  0  0  0  0  0  0  0  0  0  0
   -1.6800    2.8730    0.0000 H   0  0  0  0  0  0  0  0  0  0  0  0
    0.7260    1.8910    0.0000 H   0  0  0  0  0  0  0  0  0  0  0  0
    2.9150   -3.0540    0.0000 H   0  0  0  0  0  0  0  0  0  0  0  0
    7.0220    0.1290    0.0000 H   0  0  0  0  0  0  0  0  0  0  0  0
    5.1840    2.5000    0.0000 H   0  0  0  0  0  0  0  0  0  0  0  0
    2.7790    3.4830    0.0000 H   0  0  0  0  0  0  0  0  0  0  0  0
   -0.9760   -2.2750    0.0000 H   0  0  0  0  0  0  0  0  0  0  0  0
   -3.9480   -2.6810    0.0000 H   0  0  0  0  0  0  0  0  0  0  0  0
  1  2  1  0  0  0  0
  1 19  1  0  0  0  0
  1 20  1  0  0  0  0
  1 21  1  0  0  0  0
  2  3  2  0  0  0  0
  2 18  1  0  0  0  0
  3  4  1  0  0  0  0
  3 22  1  0  0  0  0
  4  5  2  0  0  0  0
  4 23  1  0  0  0  0
  5  6  1  0  0  0  0
  5 17  1  0  0  0  0
  6  7  1  0  0  0  0
  6 24  1  0  0  0  0
  7  8  2  0  0  0  0
  7  9  1  0  0  0  0
  9 10  2  0  0  0  0
  9 15  1  0  0  0  0
 10 11  1  0  0  0  0
 10 25  1  0  0  0  0
 11 12  1  0  0  0  0
 11 13  2  0  0  0  0
 13 14  1  0  0  0  0
 13 26  1  0  0  0  0
 14 15  2  0  0  0  0
 14 27  1  0  0  0  0
 15 16  1  0  0  0  0
 16 28  1  0  0  0  0
 17 18  2  0  0  0  0
 17 29  1  0  0  0  0
 18 30  1  0  0  0  0
M  END
$$$$
