2D_structures\o21_MMV1578885_2D.pdb
 OpenBabel02272422463D

 54 57  0  0  0  0  0  0  0  0999 V2000
  -10.8060    0.7560    0.0000 F   0  0  0  0  0  0  0  0  0  0  0  0
   -9.3290    0.4920    0.0000 C   0  0  0  0  0  0  0  0  0  0  0  0
   -9.0650    1.9690    0.0000 F   0  0  0  0  0  0  0  0  0  0  0  0
   -9.5930   -0.9850    0.0000 F   0  0  0  0  0  0  0  0  0  0  0  0
   -7.8530    0.2280    0.0000 C   0  0  0  0  0  0  0  0  0  0  0  0
   -7.3430   -1.1830    0.0000 C   0  0  0  0  0  0  0  0  0  0  0  0
   -5.8660   -1.4460    0.0000 C   0  0  0  0  0  0  0  0  0  0  0  0
   -4.9000   -0.3000    0.0000 C   0  0  0  0  0  0  0  0  0  0  0  0
   -3.4230   -0.5630    0.0000 S   0  0  0  0  0  0  0  0  0  0  0  0
   -2.4560    0.5830    0.0000 C   0  0  0  0  0  0  0  0  0  0  0  0
   -2.9660    1.9940    0.0000 N   0  0  0  0  0  0  0  0  0  0  0  0
   -4.4430    2.2580    0.0000 C   0  0  0  0  0  0  0  0  0  0  0  0
   -4.9520    3.6690    0.0000 O   0  0  0  0  0  0  0  0  0  0  0  0
   -5.4090    1.1110    0.0000 C   0  0  0  0  0  0  0  0  0  0  0  0
   -6.8860    1.3750    0.0000 C   0  0  0  0  0  0  0  0  0  0  0  0
   -0.9790    0.3200    0.0000 N   0  0  0  0  0  0  0  0  0  0  0  0
   -0.4700   -1.0910    0.0000 C   0  0  0  0  0  0  0  0  0  0  0  0
    1.0070   -1.3550    0.0000 C   0  0  0  0  0  0  0  0  0  0  0  0
    1.9740   -0.2080    0.0000 N   0  0  0  0  0  0  0  0  0  0  0  0
    1.4640    1.2030    0.0000 C   0  0  0  0  0  0  0  0  0  0  0  0
   -0.0130    1.4660    0.0000 C   0  0  0  0  0  0  0  0  0  0  0  0
    3.4500   -0.4720    0.0000 C   0  0  0  0  0  0  0  0  0  0  0  0
    4.9270   -0.7360    0.0000 C   0  0  0  0  0  0  0  0  0  0  0  0
    4.9300    0.7640    0.0000 C   0  0  0  0  0  0  0  0  0  0  0  0
    6.2310    1.5110    0.0000 C   0  0  0  0  0  0  0  0  0  0  0  0
    7.5280    0.7580    0.0000 C   0  0  0  0  0  0  0  0  0  0  0  0
    7.5250   -0.7420    0.0000 C   0  0  0  0  0  0  0  0  0  0  0  0
    6.2240   -1.4890    0.0000 C   0  0  0  0  0  0  0  0  0  0  0  0
   -5.3570   -2.8570    0.0000 N   0  3  0  0  0  0  0  0  0  0  0  0
   -6.3230   -4.0040    0.0000 O   0  5  0  0  0  0  0  0  0  0  0  0
   -3.8800   -3.1210    0.0000 O   0  0  0  0  0  0  0  0  0  0  0  0
   -8.3100   -2.3290    0.0000 H   0  0  0  0  0  0  0  0  0  0  0  0
   -7.3960    2.7860    0.0000 H   0  0  0  0  0  0  0  0  0  0  0  0
   -0.4730   -2.5910    0.0000 H   0  0  0  0  0  0  0  0  0  0  0  0
   -1.9470   -1.3480    0.0000 H   0  0  0  0  0  0  0  0  0  0  0  0
    2.2030   -2.2600    0.0000 H   0  0  0  0  0  0  0  0  0  0  0  0
    0.4910   -2.7630    0.0000 H   0  0  0  0  0  0  0  0  0  0  0  0
    1.4670    2.7030    0.0000 H   0  0  0  0  0  0  0  0  0  0  0  0
    2.8990    1.6380    0.0000 H   0  0  0  0  0  0  0  0  0  0  0  0
   -1.3100    2.2190    0.0000 H   0  0  0  0  0  0  0  0  0  0  0  0
    0.5040    2.8750    0.0000 H   0  0  0  0  0  0  0  0  0  0  0  0
    3.5910    0.3130    0.0000 H   0  0  0  0  0  0  0  0  0  0  0  0
    3.3680   -1.9700    0.0000 H   0  0  0  0  0  0  0  0  0  0  0  0
    4.4110   -2.1440    0.0000 H   0  0  0  0  0  0  0  0  0  0  0  0
    4.4210    2.1750    0.0000 H   0  0  0  0  0  0  0  0  0  0  0  0
    4.1340    0.7240    0.0000 H   0  0  0  0  0  0  0  0  0  0  0  0
    7.1980    2.6580    0.0000 H   0  0  0  0  0  0  0  0  0  0  0  0
    5.2700    2.6620    0.0000 H   0  0  0  0  0  0  0  0  0  0  0  0
    9.0050    0.4940    0.0000 H   0  0  0  0  0  0  0  0  0  0  0  0
    8.0450    2.1670    0.0000 H   0  0  0  0  0  0  0  0  0  0  0  0
    8.0350   -2.1520    0.0000 H   0  0  0  0  0  0  0  0  0  0  0  0
    9.0030   -0.4850    0.0000 H   0  0  0  0  0  0  0  0  0  0  0  0
    5.2570   -2.6360    0.0000 H   0  0  0  0  0  0  0  0  0  0  0  0
    7.1860   -2.6400    0.0000 H   0  0  0  0  0  0  0  0  0  0  0  0
  1  2  1  0  0  0  0
  2  3  1  0  0  0  0
  2  4  1  0  0  0  0
  2  5  1  0  0  0  0
  5  6  2  0  0  0  0
  5 15  1  0  0  0  0
  6  7  1  0  0  0  0
  6 32  1  0  0  0  0
  7  8  2  0  0  0  0
  7 29  1  0  0  0  0
  8  9  1  0  0  0  0
  8 14  1  0  0  0  0
  9 10  1  0  0  0  0
 10 11  2  0  0  0  0
 10 16  1  0  0  0  0
 11 12  1  0  0  0  0
 12 13  2  0  0  0  0
 12 14  1  0  0  0  0
 14 15  2  0  0  0  0
 15 33  1  0  0  0  0
 16 17  1  0  0  0  0
 16 21  1  0  0  0  0
 17 18  1  0  0  0  0
 17 34  1  0  0  0  0
 17 35  1  0  0  0  0
 18 19  1  0  0  0  0
 18 36  1  0  0  0  0
 18 37  1  0  0  0  0
 19 20  1  0  0  0  0
 19 22  1  0  0  0  0
 20 21  1  0  0  0  0
 20 38  1  0  0  0  0
 20 39  1  0  0  0  0
 21 40  1  0  0  0  0
 21 41  1  0  0  0  0
 22 23  1  0  0  0  0
 22 42  1  0  0  0  0
 22 43  1  0  0  0  0
 23 24  1  0  0  0  0
 23 28  1  0  0  0  0
 23 44  1  0  0  0  0
 24 25  1  0  0  0  0
 24 45  1  0  0  0  0
 24 46  1  0  0  0  0
 25 26  1  0  0  0  0
 25 47  1  0  0  0  0
 25 48  1  0  0  0  0
 26 27  1  0  0  0  0
 26 49  1  0  0  0  0
 26 50  1  0  0  0  0
 27 28  1  0  0  0  0
 27 51  1  0  0  0  0
 27 52  1  0  0  0  0
 28 53  1  0  0  0  0
 28 54  1  0  0  0  0
 29 30  1  0  0  0  0
 29 31  2  0  0  0  0
M  CHG  2  29   1  30  -1
M  END
$$$$
