2D_structures\o27_MMV1578555_2D.pdb
 OpenBabel02272422463D

 35 37  0  0  0  0  0  0  0  0999 V2000
   -7.9740   -2.0410    0.0000 F   0  0  0  0  0  0  0  0  0  0  0  0
   -6.6520   -1.3320    0.0000 C   0  0  0  0  0  0  0  0  0  0  0  0
   -6.6050    0.1670    0.0000 C   0  0  0  0  0  0  0  0  0  0  0  0
   -5.2820    0.8750    0.0000 C   0  0  0  0  0  0  0  0  0  0  0  0
   -4.0080    0.0840    0.0000 C   0  0  0  0  0  0  0  0  0  0  0  0
   -2.6860    0.7930    0.0000 N   0  0  0  0  0  0  0  0  0  0  0  0
   -1.4110    0.0020    0.0000 C   0  0  0  0  0  0  0  0  0  0  0  0
   -1.4590   -1.4970    0.0000 O   0  0  0  0  0  0  0  0  0  0  0  0
   -0.0890    0.7100    0.0000 C   0  0  0  0  0  0  0  0  0  0  0  0
    1.1860   -0.0810    0.0000 N   0  0  0  0  0  0  0  0  0  0  0  0
    2.5080    0.6280    0.0000 N   0  0  0  0  0  0  0  0  0  0  0  0
    2.5560    2.1270    0.0000 C   0  0  0  0  0  0  0  0  0  0  0  0
    3.8780    2.8350    0.0000 O   0  0  0  0  0  0  0  0  0  0  0  0
    1.2810    2.9180    0.0000 C   0  0  0  0  0  0  0  0  0  0  0  0
   -0.0410    2.2100    0.0000 C   0  0  0  0  0  0  0  0  0  0  0  0
   -1.3160    3.0000    0.0000 Cl  0  0  0  0  0  0  0  0  0  0  0  0
    3.7830   -0.1630    0.0000 C   0  0  0  0  0  0  0  0  0  0  0  0
    3.7350   -1.6620    0.0000 C   0  0  0  0  0  0  0  0  0  0  0  0
    5.0090   -2.4530    0.0000 C   0  0  0  0  0  0  0  0  0  0  0  0
    6.3320   -1.7450    0.0000 C   0  0  0  0  0  0  0  0  0  0  0  0
    6.3790   -0.2450    0.0000 C   0  0  0  0  0  0  0  0  0  0  0  0
    5.1050    0.5450    0.0000 C   0  0  0  0  0  0  0  0  0  0  0  0
   -4.0550   -1.4150    0.0000 C   0  0  0  0  0  0  0  0  0  0  0  0
   -5.3780   -2.1230    0.0000 C   0  0  0  0  0  0  0  0  0  0  0  0
   -7.8790    0.9580    0.0000 H   0  0  0  0  0  0  0  0  0  0  0  0
   -5.2350    2.3750    0.0000 H   0  0  0  0  0  0  0  0  0  0  0  0
   -2.6380    2.2920    0.0000 H   0  0  0  0  0  0  0  0  0  0  0  0
    1.3290    4.4170    0.0000 H   0  0  0  0  0  0  0  0  0  0  0  0
    2.4130   -2.3710    0.0000 H   0  0  0  0  0  0  0  0  0  0  0  0
    4.9620   -3.9520    0.0000 H   0  0  0  0  0  0  0  0  0  0  0  0
    7.6060   -2.5360    0.0000 H   0  0  0  0  0  0  0  0  0  0  0  0
    7.7010    0.4630    0.0000 H   0  0  0  0  0  0  0  0  0  0  0  0
    5.1520    2.0450    0.0000 H   0  0  0  0  0  0  0  0  0  0  0  0
   -2.7810   -2.2060    0.0000 H   0  0  0  0  0  0  0  0  0  0  0  0
   -5.4250   -3.6220    0.0000 H   0  0  0  0  0  0  0  0  0  0  0  0
  1  2  1  0  0  0  0
  2  3  2  0  0  0  0
  2 24  1  0  0  0  0
  3  4  1  0  0  0  0
  3 25  1  0  0  0  0
  4  5  2  0  0  0  0
  4 26  1  0  0  0  0
  5  6  1  0  0  0  0
  5 23  1  0  0  0  0
  6  7  1  0  0  0  0
  6 27  1  0  0  0  0
  7  8  2  0  0  0  0
  7  9  1  0  0  0  0
  9 10  2  0  0  0  0
  9 15  1  0  0  0  0
 10 11  1  0  0  0  0
 11 12  1  0  0  0  0
 11 17  1  0  0  0  0
 12 13  2  0  0  0  0
 12 14  1  0  0  0  0
 14 15  2  0  0  0  0
 14 28  1  0  0  0  0
 15 16  1  0  0  0  0
 17 18  2  0  0  0  0
 17 22  1  0  0  0  0
 18 19  1  0  0  0  0
 18 29  1  0  0  0  0
 19 20  2  0  0  0  0
 19 30  1  0  0  0  0
 20 21  1  0  0  0  0
 20 31  1  0  0  0  0
 21 22  2  0  0  0  0
 21 32  1  0  0  0  0
 22 33  1  0  0  0  0
 23 24  2  0  0  0  0
 23 34  1  0  0  0  0
 24 35  1  0  0  0  0
M  END
$$$$
