2D_structures\o28_MMV1578554_2D.pdb
 OpenBabel02272422463D

 10 10  0  0  0  0  0  0  0  0999 V2000
    2.7760    0.0000    0.0000 Br  0  0  0  0  0  0  0  0  0  0  0  0
    1.2760    0.0000    0.0000 C   0  0  0  0  0  0  0  0  0  0  0  0
    0.3940    1.2140    0.0000 C   0  0  0  0  0  0  0  0  0  0  0  0
    0.8580    2.6400    0.0000 Br  0  0  0  0  0  0  0  0  0  0  0  0
   -1.0320    0.7500    0.0000 C   0  0  0  0  0  0  0  0  0  0  0  0
   -2.2460    1.6320    0.0000 O   0  0  0  0  0  0  0  0  0  0  0  0
   -1.0320   -0.7500    0.0000 N   0  0  0  0  0  0  0  0  0  0  0  0
    0.3940   -1.2140    0.0000 C   0  0  0  0  0  0  0  0  0  0  0  0
    0.8580   -2.6400    0.0000 O   0  0  0  0  0  0  0  0  0  0  0  0
   -2.2460   -1.6320    0.0000 H   0  0  0  0  0  0  0  0  0  0  0  0
  1  2  1  0  0  0  0
  2  3  2  0  0  0  0
  2  8  1  0  0  0  0
  3  4  1  0  0  0  0
  3  5  1  0  0  0  0
  5  6  2  0  0  0  0
  5  7  1  0  0  0  0
  7  8  1  0  0  0  0
  7 10  1  0  0  0  0
  8  9  2  0  0  0  0
M  END
$$$$
