2D_structures\o30_MMV1634399_2D.pdb
 OpenBabel02272422463D

 53 57  0  0  0  0  0  0  0  0999 V2000
    2.5650   -0.8640    0.0000 O   0  0  0  0  0  0  0  0  0  0  0  0
    1.2530   -1.5920    0.0000 C   0  0  0  0  0  0  0  0  0  0  0  0
   -0.0330   -0.8200    0.0000 C   0  0  0  0  0  0  0  0  0  0  0  0
   -1.3450   -1.5480    0.0000 C   0  0  0  0  0  0  0  0  0  0  0  0
   -2.6310   -0.7760    0.0000 C   0  0  0  0  0  0  0  0  0  0  0  0
   -2.9180    0.6960    0.0000 N   0  0  0  0  0  0  0  0  0  0  0  0
   -4.4070    0.8780    0.0000 C   0  0  0  0  0  0  0  0  0  0  0  0
   -5.0400   -0.4820    0.0000 C   0  0  0  0  0  0  0  0  0  0  0  0
   -3.9420   -1.5040    0.0000 C   0  0  0  0  0  0  0  0  0  0  0  0
   -3.9680   -3.0040    0.0000 C   0  0  0  0  0  0  0  0  0  0  0  0
   -2.6810   -3.7760    0.0000 N   0  0  0  0  0  0  0  0  0  0  0  0
   -1.3700   -3.0480    0.0000 C   0  0  0  0  0  0  0  0  0  0  0  0
   -0.0840   -3.8190    0.0000 C   0  0  0  0  0  0  0  0  0  0  0  0
    1.2280   -3.0910    0.0000 C   0  0  0  0  0  0  0  0  0  0  0  0
   -5.2790   -3.7320    0.0000 C   0  0  0  0  0  0  0  0  0  0  0  0
   -1.8960    1.7940    0.0000 C   0  0  0  0  0  0  0  0  0  0  0  0
   -0.8730    2.8920    0.0000 C   0  0  0  0  0  0  0  0  0  0  0  0
    0.1490    3.9890    0.0000 C   0  0  0  0  0  0  0  0  0  0  0  0
    1.6110    3.6530    0.0000 C   0  0  0  0  0  0  0  0  0  0  0  0
    2.6330    4.7500    0.0000 C   0  0  0  0  0  0  0  0  0  0  0  0
    2.1940    6.1850    0.0000 C   0  0  0  0  0  0  0  0  0  0  0  0
    0.7320    6.5210    0.0000 C   0  0  0  0  0  0  0  0  0  0  0  0
   -0.2900    5.4230    0.0000 C   0  0  0  0  0  0  0  0  0  0  0  0
    3.8510   -1.6350    0.0000 C   0  0  0  0  0  0  0  0  0  0  0  0
    3.8250   -3.1350    0.0000 C   0  0  0  0  0  0  0  0  0  0  0  0
    5.1120   -3.9070    0.0000 C   0  0  0  0  0  0  0  0  0  0  0  0
    6.4230   -3.1790    0.0000 C   0  0  0  0  0  0  0  0  0  0  0  0
    6.4480   -1.6790    0.0000 C   0  0  0  0  0  0  0  0  0  0  0  0
    5.1620   -0.9070    0.0000 C   0  0  0  0  0  0  0  0  0  0  0  0
    0.1540    0.5170    0.0000 H   0  0  0  0  0  0  0  0  0  0  0  0
   -4.0700    2.3400    0.0000 H   0  0  0  0  0  0  0  0  0  0  0  0
   -5.8260    1.3660    0.0000 H   0  0  0  0  0  0  0  0  0  0  0  0
   -6.3260    0.2900    0.0000 H   0  0  0  0  0  0  0  0  0  0  0  0
   -6.0810   -1.5610    0.0000 H   0  0  0  0  0  0  0  0  0  0  0  0
   -0.1090   -5.3190    0.0000 H   0  0  0  0  0  0  0  0  0  0  0  0
    2.0040   -3.6970    0.0000 H   0  0  0  0  0  0  0  0  0  0  0  0
   -6.5910   -4.4600    0.0000 H   0  0  0  0  0  0  0  0  0  0  0  0
   -4.5510   -5.0430    0.0000 H   0  0  0  0  0  0  0  0  0  0  0  0
   -6.1620   -2.5190    0.0000 H   0  0  0  0  0  0  0  0  0  0  0  0
   -0.8030    1.0010    0.0000 H   0  0  0  0  0  0  0  0  0  0  0  0
   -2.9930    2.8160    0.0000 H   0  0  0  0  0  0  0  0  0  0  0  0
   -1.9710    3.9140    0.0000 H   0  0  0  0  0  0  0  0  0  0  0  0
    0.2240    1.8690    0.0000 H   0  0  0  0  0  0  0  0  0  0  0  0
    2.0500    2.2190    0.0000 H   0  0  0  0  0  0  0  0  0  0  0  0
    4.0950    4.4140    0.0000 H   0  0  0  0  0  0  0  0  0  0  0  0
    3.2160    7.2820    0.0000 H   0  0  0  0  0  0  0  0  0  0  0  0
    0.2920    7.9550    0.0000 H   0  0  0  0  0  0  0  0  0  0  0  0
   -1.7520    5.7600    0.0000 H   0  0  0  0  0  0  0  0  0  0  0  0
    3.0300   -3.7140    0.0000 H   0  0  0  0  0  0  0  0  0  0  0  0
    5.0860   -5.4070    0.0000 H   0  0  0  0  0  0  0  0  0  0  0  0
    7.7090   -3.9510    0.0000 H   0  0  0  0  0  0  0  0  0  0  0  0
    7.7600   -0.9510    0.0000 H   0  0  0  0  0  0  0  0  0  0  0  0
    5.1870    0.5930    0.0000 H   0  0  0  0  0  0  0  0  0  0  0  0
  1  2  1  0  0  0  0
  1 24  1  0  0  0  0
  2  3  2  0  0  0  0
  2 14  1  0  0  0  0
  3  4  1  0  0  0  0
  3 30  1  0  0  0  0
  4  5  2  0  0  0  0
  4 12  1  0  0  0  0
  5  6  1  0  0  0  0
  5  9  1  0  0  0  0
  6  7  1  0  0  0  0
  6 16  1  0  0  0  0
  7  8  1  0  0  0  0
  7 31  1  0  0  0  0
  7 32  1  0  0  0  0
  8  9  1  0  0  0  0
  8 33  1  0  0  0  0
  8 34  1  0  0  0  0
  9 10  2  0  0  0  0
 10 11  1  0  0  0  0
 10 15  1  0  0  0  0
 11 12  2  0  0  0  0
 12 13  1  0  0  0  0
 13 14  2  0  0  0  0
 13 35  1  0  0  0  0
 14 36  1  0  0  0  0
 15 37  1  0  0  0  0
 15 38  1  0  0  0  0
 15 39  1  0  0  0  0
 16 17  1  0  0  0  0
 16 40  1  0  0  0  0
 16 41  1  0  0  0  0
 17 18  1  0  0  0  0
 17 42  1  0  0  0  0
 17 43  1  0  0  0  0
 18 19  2  0  0  0  0
 18 23  1  0  0  0  0
 19 20  1  0  0  0  0
 19 44  1  0  0  0  0
 20 21  2  0  0  0  0
 20 45  1  0  0  0  0
 21 22  1  0  0  0  0
 21 46  1  0  0  0  0
 22 23  2  0  0  0  0
 22 47  1  0  0  0  0
 23 48  1  0  0  0  0
 24 25  2  0  0  0  0
 24 29  1  0  0  0  0
 25 26  1  0  0  0  0
 25 49  1  0  0  0  0
 26 27  2  0  0  0  0
 26 50  1  0  0  0  0
 27 28  1  0  0  0  0
 27 51  1  0  0  0  0
 28 29  2  0  0  0  0
 28 52  1  0  0  0  0
 29 53  1  0  0  0  0
M  END
$$$$
