2D_structures\o34_MMV687801_2D.pdb
 OpenBabel02272422463D

 38 37  0  0  1  0  0  0  0  0999 V2000
   -5.3420    0.8790    0.0000 C   0  0  0  0  0  0  0  0  0  0  0  0
   -3.9960    0.2170    0.0000 C   0  0  0  0  0  0  0  0  0  0  0  0
   -2.6500   -0.4440    0.0000 C   0  0  1  0  0  0  0  0  0  0  0  0
   -1.3040   -1.1060    0.0000 C   0  0  0  0  0  0  0  0  0  0  0  0
    0.0420   -1.7680    0.0000 O   0  0  0  0  0  0  0  0  0  0  0  0
   -1.9880    0.9020    0.0000 N   0  0  0  0  0  0  0  0  0  0  0  0
   -0.4920    1.0020    0.0000 C   0  0  0  0  0  0  0  0  0  0  0  0
    1.0050    1.1020    0.0000 C   0  0  0  0  0  0  0  0  0  0  0  0
    2.5020    1.2020    0.0000 N   0  0  0  0  0  0  0  0  0  0  0  0
    3.3370   -0.0440    0.0000 C   0  0  1  0  0  0  0  0  0  0  0  0
    2.0910   -0.8790    0.0000 C   0  0  0  0  0  0  0  0  0  0  0  0
    0.8450   -1.7140    0.0000 C   0  0  0  0  0  0  0  0  0  0  0  0
    4.5830    0.7910    0.0000 C   0  0  0  0  0  0  0  0  0  0  0  0
    5.8290    1.6260    0.0000 O   0  0  0  0  0  0  0  0  0  0  0  0
   -6.6880    1.5410    0.0000 H   0  0  0  0  0  0  0  0  0  0  0  0
   -4.6810    2.2250    0.0000 H   0  0  0  0  0  0  0  0  0  0  0  0
   -6.0040   -0.4670    0.0000 H   0  0  0  0  0  0  0  0  0  0  0  0
   -4.6580   -1.1290    0.0000 H   0  0  0  0  0  0  0  0  0  0  0  0
   -3.5030    1.6340    0.0000 H   0  0  0  0  0  0  0  0  0  0  0  0
   -3.3120   -1.7900    0.0000 H   0  0  0  0  0  0  0  0  0  0  0  0
   -1.9650   -2.4520    0.0000 H   0  0  0  0  0  0  0  0  0  0  0  0
   -0.7190   -0.5640    0.0000 H   0  0  0  0  0  0  0  0  0  0  0  0
   -0.0410   -3.2650    0.0000 H   0  0  0  0  0  0  0  0  0  0  0  0
   -2.6650    2.2410    0.0000 H   0  0  0  0  0  0  0  0  0  0  0  0
   -0.4380    0.2070    0.0000 H   0  0  0  0  0  0  0  0  0  0  0  0
   -0.5920    2.4990    0.0000 H   0  0  0  0  0  0  0  0  0  0  0  0
    0.9050    2.5990    0.0000 H   0  0  0  0  0  0  0  0  0  0  0  0
    0.9220   -0.3960    0.0000 H   0  0  0  0  0  0  0  0  0  0  0  0
    2.9940    2.6190    0.0000 H   0  0  0  0  0  0  0  0  0  0  0  0
    4.1720   -1.2900    0.0000 H   0  0  0  0  0  0  0  0  0  0  0  0
    2.9260   -2.1250    0.0000 H   0  0  0  0  0  0  0  0  0  0  0  0
    0.8640   -0.0150    0.0000 H   0  0  0  0  0  0  0  0  0  0  0  0
   -0.0190   -2.9400    0.0000 H   0  0  0  0  0  0  0  0  0  0  0  0
    1.6800   -2.9600    0.0000 H   0  0  0  0  0  0  0  0  0  0  0  0
   -0.1360   -0.5790    0.0000 H   0  0  0  0  0  0  0  0  0  0  0  0
    5.4180   -0.4550    0.0000 H   0  0  0  0  0  0  0  0  0  0  0  0
    3.9060    2.1300    0.0000 H   0  0  0  0  0  0  0  0  0  0  0  0
    7.1750    0.9650    0.0000 H   0  0  0  0  0  0  0  0  0  0  0  0
  1  2  1  0  0  0  0
  1 15  1  0  0  0  0
  1 16  1  0  0  0  0
  1 17  1  0  0  0  0
  2  3  1  0  0  0  0
  2 18  1  0  0  0  0
  2 19  1  0  0  0  0
  3  4  1  0  0  0  0
  3  6  1  0  0  0  0
  3 20  1  1  0  0  0
  4  5  1  0  0  0  0
  4 21  1  0  0  0  0
  4 22  1  0  0  0  0
  5 23  1  0  0  0  0
  6  7  1  0  0  0  0
  6 24  1  0  0  0  0
  7  8  1  0  0  0  0
  7 25  1  0  0  0  0
  7 26  1  0  0  0  0
  8  9  1  0  0  0  0
  8 27  1  0  0  0  0
  8 28  1  0  0  0  0
  9 10  1  0  0  0  0
  9 29  1  0  0  0  0
 10 11  1  0  0  0  0
 10 13  1  0  0  0  0
 10 30  1  1  0  0  0
 11 12  1  0  0  0  0
 11 31  1  0  0  0  0
 11 32  1  0  0  0  0
 12 33  1  0  0  0  0
 12 34  1  0  0  0  0
 12 35  1  0  0  0  0
 13 14  1  0  0  0  0
 13 36  1  0  0  0  0
 13 37  1  0  0  0  0
 14 38  1  0  0  0  0
M  END
$$$$
