2D_structures\o35_MMV1593531_2D.pdb
 OpenBabel02272422463D

 48 51  0  0  1  0  0  0  0  0999 V2000
   -2.8320    0.0550    0.0000 O   0  0  0  0  0  0  0  0  0  0  0  0
   -2.9860    1.5470    0.0000 C   0  0  0  0  0  0  0  0  0  0  0  0
   -1.8690    2.5490    0.0000 C   0  0  0  0  0  0  0  0  0  0  0  0
   -0.4020    2.2330    0.0000 C   0  0  0  0  0  0  0  0  0  0  0  0
    0.6040    3.3460    0.0000 O   0  0  0  0  0  0  0  0  0  0  0  0
    0.0580    0.8060    0.0000 N   0  0  0  0  0  0  0  0  0  0  0  0
    1.5250    0.4910    0.0000 C   0  0  0  0  0  0  0  0  0  0  0  0
    1.9850   -0.9370    0.0000 C   0  0  0  0  0  0  0  0  0  0  0  0
    3.4520   -1.2520    0.0000 C   0  0  0  0  0  0  0  0  0  0  0  0
    4.4580   -0.1390    0.0000 C   0  0  0  0  0  0  0  0  0  0  0  0
    3.9970    1.2880    0.0000 C   0  0  0  0  0  0  0  0  0  0  0  0
    2.5310    1.6030    0.0000 C   0  0  0  0  0  0  0  0  0  0  0  0
    5.9240   -0.4540    0.0000 C   0  0  0  0  0  0  0  0  0  0  0  0
    6.3850   -1.8820    0.0000 C   0  0  0  0  0  0  0  0  0  0  0  0
    7.8510   -2.1970    0.0000 C   0  0  0  0  0  0  0  0  0  0  0  0
    8.8570   -1.0840    0.0000 C   0  0  0  0  0  0  0  0  0  0  0  0
    8.3970    0.3430    0.0000 C   0  0  0  0  0  0  0  0  0  0  0  0
    6.9310    0.6580    0.0000 C   0  0  0  0  0  0  0  0  0  0  0  0
   -2.4760    3.9200    0.0000 C   0  0  0  0  0  0  0  0  0  0  0  0
   -1.7230    5.2180    0.0000 O   0  0  0  0  0  0  0  0  0  0  0  0
   -3.9680    3.7670    0.0000 O   0  0  0  0  0  0  0  0  0  0  0  0
   -4.2830    2.3000    0.0000 C   0  0  1  0  0  0  0  0  0  0  0  0
   -4.8960    0.9310    0.0000 C   0  0  0  0  0  0  0  0  0  0  0  0
   -5.5090   -0.4380    0.0000 C   0  0  0  0  0  0  0  0  0  0  0  0
   -7.0010   -0.5910    0.0000 C   0  0  0  0  0  0  0  0  0  0  0  0
   -7.6140   -1.9600    0.0000 C   0  0  0  0  0  0  0  0  0  0  0  0
   -6.7350   -3.1760    0.0000 C   0  0  0  0  0  0  0  0  0  0  0  0
   -5.2430   -3.0220    0.0000 C   0  0  0  0  0  0  0  0  0  0  0  0
   -4.6300   -1.6530    0.0000 C   0  0  0  0  0  0  0  0  0  0  0  0
   -4.0480   -0.8240    0.0000 H   0  0  0  0  0  0  0  0  0  0  0  0
   -0.9480   -0.3070    0.0000 H   0  0  0  0  0  0  0  0  0  0  0  0
    0.9790   -2.0490    0.0000 H   0  0  0  0  0  0  0  0  0  0  0  0
    3.9120   -2.6790    0.0000 H   0  0  0  0  0  0  0  0  0  0  0  0
    5.0040    2.4010    0.0000 H   0  0  0  0  0  0  0  0  0  0  0  0
    2.0700    3.0310    0.0000 H   0  0  0  0  0  0  0  0  0  0  0  0
    5.3790   -2.9940    0.0000 H   0  0  0  0  0  0  0  0  0  0  0  0
    8.3120   -3.6250    0.0000 H   0  0  0  0  0  0  0  0  0  0  0  0
   10.3240   -1.4000    0.0000 H   0  0  0  0  0  0  0  0  0  0  0  0
    9.4030    1.4560    0.0000 H   0  0  0  0  0  0  0  0  0  0  0  0
    6.4700    2.0860    0.0000 H   0  0  0  0  0  0  0  0  0  0  0  0
   -5.7090    2.7670    0.0000 H   0  0  0  0  0  0  0  0  0  0  0  0
   -3.8340    0.0980    0.0000 H   0  0  0  0  0  0  0  0  0  0  0  0
   -6.2650    1.5440    0.0000 H   0  0  0  0  0  0  0  0  0  0  0  0
   -7.8800    0.6240    0.0000 H   0  0  0  0  0  0  0  0  0  0  0  0
   -9.1070   -2.1140    0.0000 H   0  0  0  0  0  0  0  0  0  0  0  0
   -7.3480   -4.5450    0.0000 H   0  0  0  0  0  0  0  0  0  0  0  0
   -4.3640   -4.2380    0.0000 H   0  0  0  0  0  0  0  0  0  0  0  0
   -3.1380   -1.5000    0.0000 H   0  0  0  0  0  0  0  0  0  0  0  0
  1  2  1  0  0  0  0
  1 30  1  0  0  0  0
  2  3  2  0  0  0  0
  2 22  1  0  0  0  0
  3  4  1  0  0  0  0
  3 19  1  0  0  0  0
  4  5  2  0  0  0  0
  4  6  1  0  0  0  0
  6  7  1  0  0  0  0
  6 31  1  0  0  0  0
  7  8  2  0  0  0  0
  7 12  1  0  0  0  0
  8  9  1  0  0  0  0
  8 32  1  0  0  0  0
  9 10  2  0  0  0  0
  9 33  1  0  0  0  0
 10 11  1  0  0  0  0
 10 13  1  0  0  0  0
 11 12  2  0  0  0  0
 11 34  1  0  0  0  0
 12 35  1  0  0  0  0
 13 14  2  0  0  0  0
 13 18  1  0  0  0  0
 14 15  1  0  0  0  0
 14 36  1  0  0  0  0
 15 16  2  0  0  0  0
 15 37  1  0  0  0  0
 16 17  1  0  0  0  0
 16 38  1  0  0  0  0
 17 18  2  0  0  0  0
 17 39  1  0  0  0  0
 18 40  1  0  0  0  0
 19 20  2  0  0  0  0
 19 21  1  0  0  0  0
 21 22  1  0  0  0  0
 22 23  1  0  0  0  0
 22 41  1  1  0  0  0
 23 24  1  0  0  0  0
 23 42  1  0  0  0  0
 23 43  1  0  0  0  0
 24 25  2  0  0  0  0
 24 29  1  0  0  0  0
 25 26  1  0  0  0  0
 25 44  1  0  0  0  0
 26 27  2  0  0  0  0
 26 45  1  0  0  0  0
 27 28  1  0  0  0  0
 27 46  1  0  0  0  0
 28 29  2  0  0  0  0
 28 47  1  0  0  0  0
 29 48  1  0  0  0  0
M  END
$$$$
