2D_structures\o36_MMV1581558_2D.pdb
 OpenBabel02272422463D

 46 49  0  0  0  0  0  0  0  0999 V2000
   -2.7620   -3.4060    0.0000 C   0  0  0  0  0  0  0  0  0  0  0  0
   -3.6740   -2.2150    0.0000 C   0  0  0  0  0  0  0  0  0  0  0  0
   -5.1610   -2.4080    0.0000 C   0  0  0  0  0  0  0  0  0  0  0  0
   -6.0720   -1.2170    0.0000 C   0  0  0  0  0  0  0  0  0  0  0  0
   -5.4960    0.1680    0.0000 C   0  0  0  0  0  0  0  0  0  0  0  0
   -4.0090    0.3620    0.0000 C   0  0  0  0  0  0  0  0  0  0  0  0
   -3.4330    1.7470    0.0000 C   0  0  0  0  0  0  0  0  0  0  0  0
   -3.0980   -0.8300    0.0000 C   0  0  0  0  0  0  0  0  0  0  0  0
   -1.6100   -0.6360    0.0000 C   0  0  0  0  0  0  0  0  0  0  0  0
   -0.6990   -1.8280    0.0000 O   0  0  0  0  0  0  0  0  0  0  0  0
   -1.0340    0.7490    0.0000 N   0  0  0  0  0  0  0  0  0  0  0  0
    0.4530    0.9420    0.0000 C   0  0  0  0  0  0  0  0  0  0  0  0
    1.3650   -0.2490    0.0000 N   0  0  0  0  0  0  0  0  0  0  0  0
    2.8520   -0.0550    0.0000 C   0  0  0  0  0  0  0  0  0  0  0  0
    3.4280    1.3300    0.0000 C   0  0  0  0  0  0  0  0  0  0  0  0
    2.5170    2.5210    0.0000 C   0  0  0  0  0  0  0  0  0  0  0  0
    3.0930    3.9060    0.0000 C   0  0  0  0  0  0  0  0  0  0  0  0
    2.1820    5.0970    0.0000 C   0  0  0  0  0  0  0  0  0  0  0  0
    0.6940    4.9040    0.0000 C   0  0  0  0  0  0  0  0  0  0  0  0
    0.1180    3.5190    0.0000 C   0  0  0  0  0  0  0  0  0  0  0  0
    1.0290    2.3270    0.0000 C   0  0  0  0  0  0  0  0  0  0  0  0
    3.7640   -1.2470    0.0000 C   0  0  0  0  0  0  0  0  0  0  0  0
    3.1880   -2.6320    0.0000 C   0  0  0  0  0  0  0  0  0  0  0  0
    4.0990   -3.8230    0.0000 C   0  0  0  0  0  0  0  0  0  0  0  0
    5.5860   -3.6290    0.0000 C   0  0  0  0  0  0  0  0  0  0  0  0
    6.1620   -2.2440    0.0000 C   0  0  0  0  0  0  0  0  0  0  0  0
    5.2510   -1.0530    0.0000 N   0  0  0  0  0  0  0  0  0  0  0  0
   -1.8510   -4.5970    0.0000 H   0  0  0  0  0  0  0  0  0  0  0  0
   -3.9540   -4.3170    0.0000 H   0  0  0  0  0  0  0  0  0  0  0  0
   -1.5710   -2.4950    0.0000 H   0  0  0  0  0  0  0  0  0  0  0  0
   -5.7370   -3.7930    0.0000 H   0  0  0  0  0  0  0  0  0  0  0  0
   -7.5600   -1.4110    0.0000 H   0  0  0  0  0  0  0  0  0  0  0  0
   -6.4080    1.3590    0.0000 H   0  0  0  0  0  0  0  0  0  0  0  0
   -2.8570    3.1320    0.0000 H   0  0  0  0  0  0  0  0  0  0  0  0
   -2.4850    1.4820    0.0000 H   0  0  0  0  0  0  0  0  0  0  0  0
   -4.8180    2.3230    0.0000 H   0  0  0  0  0  0  0  0  0  0  0  0
   -1.5320    1.5980    0.0000 H   0  0  0  0  0  0  0  0  0  0  0  0
    4.9160    1.5230    0.0000 H   0  0  0  0  0  0  0  0  0  0  0  0
    4.5800    4.1000    0.0000 H   0  0  0  0  0  0  0  0  0  0  0  0
    2.7580    6.4820    0.0000 H   0  0  0  0  0  0  0  0  0  0  0  0
   -0.2170    6.0950    0.0000 H   0  0  0  0  0  0  0  0  0  0  0  0
   -1.3690    3.3250    0.0000 H   0  0  0  0  0  0  0  0  0  0  0  0
    1.7000   -2.8250    0.0000 H   0  0  0  0  0  0  0  0  0  0  0  0
    3.5230   -5.2080    0.0000 H   0  0  0  0  0  0  0  0  0  0  0  0
    6.4980   -4.8210    0.0000 H   0  0  0  0  0  0  0  0  0  0  0  0
    7.6500   -2.0510    0.0000 H   0  0  0  0  0  0  0  0  0  0  0  0
  1  2  1  0  0  0  0
  1 28  1  0  0  0  0
  1 29  1  0  0  0  0
  1 30  1  0  0  0  0
  2  3  2  0  0  0  0
  2  8  1  0  0  0  0
  3  4  1  0  0  0  0
  3 31  1  0  0  0  0
  4  5  2  0  0  0  0
  4 32  1  0  0  0  0
  5  6  1  0  0  0  0
  5 33  1  0  0  0  0
  6  7  1  0  0  0  0
  6  8  2  0  0  0  0
  7 34  1  0  0  0  0
  7 35  1  0  0  0  0
  7 36  1  0  0  0  0
  8  9  1  0  0  0  0
  9 10  2  0  0  0  0
  9 11  1  0  0  0  0
 11 12  1  0  0  0  0
 11 37  1  0  0  0  0
 12 13  2  0  0  0  0
 12 21  1  0  0  0  0
 13 14  1  0  0  0  0
 14 15  2  0  0  0  0
 14 22  1  0  0  0  0
 15 16  1  0  0  0  0
 15 38  1  0  0  0  0
 16 17  2  0  0  0  0
 16 21  1  0  0  0  0
 17 18  1  0  0  0  0
 17 39  1  0  0  0  0
 18 19  2  0  0  0  0
 18 40  1  0  0  0  0
 19 20  1  0  0  0  0
 19 41  1  0  0  0  0
 20 21  2  0  0  0  0
 20 42  1  0  0  0  0
 22 23  2  0  0  0  0
 22 27  1  0  0  0  0
 23 24  1  0  0  0  0
 23 43  1  0  0  0  0
 24 25  2  0  0  0  0
 24 44  1  0  0  0  0
 25 26  1  0  0  0  0
 25 45  1  0  0  0  0
 26 27  2  0  0  0  0
 26 46  1  0  0  0  0
M  END
$$$$
