2D_structures\o3_MMV1634391_2D.pdb
 OpenBabel02272422463D

 84 89  0  0  0  0  0  0  0  0999 V2000
   -1.9760    1.8540    0.0000 O   0  0  0  0  0  0  0  0  0  0  0  0
   -3.1810    2.7470    0.0000 C   0  0  0  0  0  0  0  0  0  0  0  0
   -3.0100    4.2370    0.0000 N   0  0  0  0  0  0  0  0  0  0  0  0
   -1.6340    4.8340    0.0000 C   0  0  0  0  0  0  0  0  0  0  0  0
   -1.3090    6.2990    0.0000 C   0  0  0  0  0  0  0  0  0  0  0  0
    0.1850    6.4420    0.0000 N   0  0  0  0  0  0  0  0  0  0  0  0
    0.9470    7.7340    0.0000 C   0  0  0  0  0  0  0  0  0  0  0  0
    0.7820    5.0660    0.0000 C   0  0  0  0  0  0  0  0  0  0  0  0
   -0.3420    4.0720    0.0000 C   0  0  0  0  0  0  0  0  0  0  0  0
    2.2460    4.7400    0.0000 C   0  0  0  0  0  0  0  0  0  0  0  0
    3.2600    5.8460    0.0000 O   0  0  0  0  0  0  0  0  0  0  0  0
    2.6960    3.3090    0.0000 N   0  0  0  0  0  0  0  0  0  0  0  0
    4.1610    2.9840    0.0000 C   0  0  0  0  0  0  0  0  0  0  0  0
    5.2850    3.9770    0.0000 C   0  0  0  0  0  0  0  0  0  0  0  0
    6.5770    3.2150    0.0000 N   0  0  0  0  0  0  0  0  0  0  0  0
    7.9530    3.8120    0.0000 C   0  0  0  0  0  0  0  0  0  0  0  0
    6.2510    1.7510    0.0000 C   0  0  0  0  0  0  0  0  0  0  0  0
    4.7580    1.6080    0.0000 C   0  0  0  0  0  0  0  0  0  0  0  0
    7.2440    0.6270    0.0000 C   0  0  0  0  0  0  0  0  0  0  0  0
    8.7140    0.9250    0.0000 O   0  0  0  0  0  0  0  0  0  0  0  0
    6.7680   -0.7950    0.0000 N   0  0  0  0  0  0  0  0  0  0  0  0
    7.7610   -1.9190    0.0000 C   0  0  0  0  0  0  0  0  0  0  0  0
    8.7540   -3.0430    0.0000 C   0  0  0  0  0  0  0  0  0  0  0  0
    9.7470   -4.1670    0.0000 N   0  0  0  0  0  0  0  0  0  0  0  0
    9.2710   -5.5900    0.0000 C   0  0  0  0  0  0  0  0  0  0  0  0
   10.2640   -6.7140    0.0000 C   0  0  0  0  0  0  0  0  0  0  0  0
   11.7340   -6.4150    0.0000 O   0  0  0  0  0  0  0  0  0  0  0  0
   12.2110   -4.9930    0.0000 C   0  0  0  0  0  0  0  0  0  0  0  0
   11.2170   -3.8690    0.0000 C   0  0  0  0  0  0  0  0  0  0  0  0
   -4.5570    2.1500    0.0000 C   0  0  0  0  0  0  0  0  0  0  0  0
   -4.7270    0.6590    0.0000 C   0  0  0  0  0  0  0  0  0  0  0  0
   -6.1030    0.0620    0.0000 C   0  0  0  0  0  0  0  0  0  0  0  0
   -7.3090    0.9550    0.0000 C   0  0  0  0  0  0  0  0  0  0  0  0
   -8.6850    0.3580    0.0000 C   0  0  0  0  0  0  0  0  0  0  0  0
   -8.8550   -1.1330    0.0000 C   0  0  0  0  0  0  0  0  0  0  0  0
  -10.2310   -1.7300    0.0000 C   0  0  0  0  0  0  0  0  0  0  0  0
  -10.4020   -3.2200    0.0000 C   0  0  0  0  0  0  0  0  0  0  0  0
  -11.7780   -3.8180    0.0000 C   0  0  0  0  0  0  0  0  0  0  0  0
  -11.9480   -5.3080    0.0000 C   0  0  0  0  0  0  0  0  0  0  0  0
  -13.3240   -5.9050    0.0000 C   0  0  0  0  0  0  0  0  0  0  0  0
  -14.5300   -5.0120    0.0000 C   0  0  0  0  0  0  0  0  0  0  0  0
  -14.3590   -3.5220    0.0000 C   0  0  0  0  0  0  0  0  0  0  0  0
  -12.9830   -2.9250    0.0000 C   0  0  0  0  0  0  0  0  0  0  0  0
  -12.8120   -1.4340    0.0000 N   0  0  0  0  0  0  0  0  0  0  0  0
  -11.4360   -0.8370    0.0000 C   0  0  0  0  0  0  0  0  0  0  0  0
   -7.1380    2.4450    0.0000 C   0  0  0  0  0  0  0  0  0  0  0  0
   -5.7620    3.0420    0.0000 C   0  0  0  0  0  0  0  0  0  0  0  0
   -4.2150    5.1300    0.0000 H   0  0  0  0  0  0  0  0  0  0  0  0
   -2.3020    7.4230    0.0000 H   0  0  0  0  0  0  0  0  0  0  0  0
    2.2390    6.9720    0.0000 H   0  0  0  0  0  0  0  0  0  0  0  0
   -0.3450    8.4960    0.0000 H   0  0  0  0  0  0  0  0  0  0  0  0
    1.7090    9.0260    0.0000 H   0  0  0  0  0  0  0  0  0  0  0  0
   -0.1990    2.5790    0.0000 H   0  0  0  0  0  0  0  0  0  0  0  0
    1.6820    2.2040    0.0000 H   0  0  0  0  0  0  0  0  0  0  0  0
    5.1420    5.4700    0.0000 H   0  0  0  0  0  0  0  0  0  0  0  0
    8.5500    2.4360    0.0000 H   0  0  0  0  0  0  0  0  0  0  0  0
    7.3550    5.1880    0.0000 H   0  0  0  0  0  0  0  0  0  0  0  0
    9.3280    4.4100    0.0000 H   0  0  0  0  0  0  0  0  0  0  0  0
    3.9960    0.3160    0.0000 H   0  0  0  0  0  0  0  0  0  0  0  0
    5.2980   -1.0940    0.0000 H   0  0  0  0  0  0  0  0  0  0  0  0
    8.8850   -0.9260    0.0000 H   0  0  0  0  0  0  0  0  0  0  0  0
    6.6370   -2.9130    0.0000 H   0  0  0  0  0  0  0  0  0  0  0  0
    7.5170   -3.8920    0.0000 H   0  0  0  0  0  0  0  0  0  0  0  0
    9.7490   -1.9210    0.0000 H   0  0  0  0  0  0  0  0  0  0  0  0
    8.3360   -6.7630    0.0000 H   0  0  0  0  0  0  0  0  0  0  0  0
    7.8750   -5.0390    0.0000 H   0  0  0  0  0  0  0  0  0  0  0  0
   10.8130   -8.1100    0.0000 H   0  0  0  0  0  0  0  0  0  0  0  0
    8.9850   -7.4970    0.0000 H   0  0  0  0  0  0  0  0  0  0  0  0
   13.1450   -3.8200    0.0000 H   0  0  0  0  0  0  0  0  0  0  0  0
   13.5290   -5.7100    0.0000 H   0  0  0  0  0  0  0  0  0  0  0  0
   10.8430   -2.4170    0.0000 H   0  0  0  0  0  0  0  0  0  0  0  0
   12.4970   -3.0860    0.0000 H   0  0  0  0  0  0  0  0  0  0  0  0
   -3.5220   -0.2340    0.0000 H   0  0  0  0  0  0  0  0  0  0  0  0
   -6.2740   -1.4280    0.0000 H   0  0  0  0  0  0  0  0  0  0  0  0
   -9.8900    1.2500    0.0000 H   0  0  0  0  0  0  0  0  0  0  0  0
   -7.6500   -2.0260    0.0000 H   0  0  0  0  0  0  0  0  0  0  0  0
   -9.1970   -4.1130    0.0000 H   0  0  0  0  0  0  0  0  0  0  0  0
  -10.7430   -6.2010    0.0000 H   0  0  0  0  0  0  0  0  0  0  0  0
  -13.4950   -7.3950    0.0000 H   0  0  0  0  0  0  0  0  0  0  0  0
  -15.9060   -5.6100    0.0000 H   0  0  0  0  0  0  0  0  0  0  0  0
  -15.5640   -2.6290    0.0000 H   0  0  0  0  0  0  0  0  0  0  0  0
  -11.2660    0.6530    0.0000 H   0  0  0  0  0  0  0  0  0  0  0  0
   -8.3430    3.3380    0.0000 H   0  0  0  0  0  0  0  0  0  0  0  0
   -5.5910    4.5330    0.0000 H   0  0  0  0  0  0  0  0  0  0  0  0
  1  2  2  0  0  0  0
  2  3  1  0  0  0  0
  2 30  1  0  0  0  0
  3  4  1  0  0  0  0
  3 48  1  0  0  0  0
  4  5  2  0  0  0  0
  4  9  1  0  0  0  0
  5  6  1  0  0  0  0
  5 49  1  0  0  0  0
  6  7  1  0  0  0  0
  6  8  1  0  0  0  0
  7 50  1  0  0  0  0
  7 51  1  0  0  0  0
  7 52  1  0  0  0  0
  8  9  2  0  0  0  0
  8 10  1  0  0  0  0
  9 53  1  0  0  0  0
 10 11  2  0  0  0  0
 10 12  1  0  0  0  0
 12 13  1  0  0  0  0
 12 54  1  0  0  0  0
 13 14  2  0  0  0  0
 13 18  1  0  0  0  0
 14 15  1  0  0  0  0
 14 55  1  0  0  0  0
 15 16  1  0  0  0  0
 15 17  1  0  0  0  0
 16 56  1  0  0  0  0
 16 57  1  0  0  0  0
 16 58  1  0  0  0  0
 17 18  2  0  0  0  0
 17 19  1  0  0  0  0
 18 59  1  0  0  0  0
 19 20  2  0  0  0  0
 19 21  1  0  0  0  0
 21 22  1  0  0  0  0
 21 60  1  0  0  0  0
 22 23  1  0  0  0  0
 22 61  1  0  0  0  0
 22 62  1  0  0  0  0
 23 24  1  0  0  0  0
 23 63  1  0  0  0  0
 23 64  1  0  0  0  0
 24 25  1  0  0  0  0
 24 29  1  0  0  0  0
 25 26  1  0  0  0  0
 25 65  1  0  0  0  0
 25 66  1  0  0  0  0
 26 27  1  0  0  0  0
 26 67  1  0  0  0  0
 26 68  1  0  0  0  0
 27 28  1  0  0  0  0
 28 29  1  0  0  0  0
 28 69  1  0  0  0  0
 28 70  1  0  0  0  0
 29 71  1  0  0  0  0
 29 72  1  0  0  0  0
 30 31  2  0  0  0  0
 30 47  1  0  0  0  0
 31 32  1  0  0  0  0
 31 73  1  0  0  0  0
 32 33  2  0  0  0  0
 32 74  1  0  0  0  0
 33 34  1  0  0  0  0
 33 46  1  0  0  0  0
 34 35  2  0  0  0  0
 34 75  1  0  0  0  0
 35 36  1  0  0  0  0
 35 76  1  0  0  0  0
 36 37  2  0  0  0  0
 36 45  1  0  0  0  0
 37 38  1  0  0  0  0
 37 77  1  0  0  0  0
 38 39  2  0  0  0  0
 38 43  1  0  0  0  0
 39 40  1  0  0  0  0
 39 78  1  0  0  0  0
 40 41  2  0  0  0  0
 40 79  1  0  0  0  0
 41 42  1  0  0  0  0
 41 80  1  0  0  0  0
 42 43  2  0  0  0  0
 42 81  1  0  0  0  0
 43 44  1  0  0  0  0
 44 45  2  0  0  0  0
 45 82  1  0  0  0  0
 46 47  2  0  0  0  0
 46 83  1  0  0  0  0
 47 84  1  0  0  0  0
M  END
$$$$
