2D_structures\o40_MMV1579847_2D.pdb
 OpenBabel02272422463D

 38 40  0  0  0  0  0  0  0  0999 V2000
   -6.0310    2.2370    0.0000 C   0  0  0  0  0  0  0  0  0  0  0  0
   -4.8010    1.3780    0.0000 C   0  0  0  0  0  0  0  0  0  0  0  0
   -3.4420    2.0150    0.0000 C   0  0  0  0  0  0  0  0  0  0  0  0
   -2.2120    1.1560    0.0000 C   0  0  0  0  0  0  0  0  0  0  0  0
   -2.3400   -0.3380    0.0000 N   0  0  0  0  0  0  0  0  0  0  0  0
   -1.3160   -1.4330    0.0000 C   0  0  0  0  0  0  0  0  0  0  0  0
    0.1730   -1.2480    0.0000 C   0  0  0  0  0  0  0  0  0  0  0  0
    1.0780   -2.4450    0.0000 O   0  0  0  0  0  0  0  0  0  0  0  0
    0.7570    0.1340    0.0000 N   0  0  0  0  0  0  0  0  0  0  0  0
    2.2450    0.3190    0.0000 C   0  0  0  0  0  0  0  0  0  0  0  0
    3.7340    0.5040    0.0000 C   0  0  0  0  0  0  0  0  0  0  0  0
    4.3180    1.8860    0.0000 C   0  0  0  0  0  0  0  0  0  0  0  0
    5.8060    2.0710    0.0000 C   0  0  0  0  0  0  0  0  0  0  0  0
    6.7110    0.8750    0.0000 C   0  0  0  0  0  0  0  0  0  0  0  0
    6.1270   -0.5070    0.0000 C   0  0  0  0  0  0  0  0  0  0  0  0
    4.6390   -0.6920    0.0000 C   0  0  0  0  0  0  0  0  0  0  0  0
   -2.0410   -2.7470    0.0000 C   0  0  0  0  0  0  0  0  0  0  0  0
   -1.4040   -4.1050    0.0000 C   0  0  0  0  0  0  0  0  0  0  0  0
   -3.5130   -2.4630    0.0000 N   0  0  0  0  0  0  0  0  0  0  0  0
   -3.6990   -0.9740    0.0000 C   0  0  0  0  0  0  0  0  0  0  0  0
   -4.9290   -0.1160    0.0000 C   0  0  0  0  0  0  0  0  0  0  0  0
   -7.2610    3.0950    0.0000 H   0  0  0  0  0  0  0  0  0  0  0  0
   -5.1730    3.4670    0.0000 H   0  0  0  0  0  0  0  0  0  0  0  0
   -6.8890    1.0070    0.0000 H   0  0  0  0  0  0  0  0  0  0  0  0
   -3.3140    3.5090    0.0000 H   0  0  0  0  0  0  0  0  0  0  0  0
   -0.9410    1.9530    0.0000 H   0  0  0  0  0  0  0  0  0  0  0  0
    0.0050    1.4310    0.0000 H   0  0  0  0  0  0  0  0  0  0  0  0
    2.4310   -1.1700    0.0000 H   0  0  0  0  0  0  0  0  0  0  0  0
    2.0600    1.8070    0.0000 H   0  0  0  0  0  0  0  0  0  0  0  0
    3.4130    3.0820    0.0000 H   0  0  0  0  0  0  0  0  0  0  0  0
    6.3900    3.4530    0.0000 H   0  0  0  0  0  0  0  0  0  0  0  0
    8.1990    1.0600    0.0000 H   0  0  0  0  0  0  0  0  0  0  0  0
    7.0320   -1.7030    0.0000 H   0  0  0  0  0  0  0  0  0  0  0  0
    4.0550   -2.0740    0.0000 H   0  0  0  0  0  0  0  0  0  0  0  0
   -0.7680   -5.4630    0.0000 H   0  0  0  0  0  0  0  0  0  0  0  0
   -2.7630   -4.7410    0.0000 H   0  0  0  0  0  0  0  0  0  0  0  0
   -0.0460   -3.4690    0.0000 H   0  0  0  0  0  0  0  0  0  0  0  0
   -6.2870   -0.7520    0.0000 H   0  0  0  0  0  0  0  0  0  0  0  0
  1  2  1  0  0  0  0
  1 22  1  0  0  0  0
  1 23  1  0  0  0  0
  1 24  1  0  0  0  0
  2  3  1  0  0  0  0
  2 21  2  0  0  0  0
  3  4  2  0  0  0  0
  3 25  1  0  0  0  0
  4  5  1  0  0  0  0
  4 26  1  0  0  0  0
  5  6  1  0  0  0  0
  5 20  1  0  0  0  0
  6  7  1  0  0  0  0
  6 17  2  0  0  0  0
  7  8  2  0  0  0  0
  7  9  1  0  0  0  0
  9 10  1  0  0  0  0
  9 27  1  0  0  0  0
 10 11  1  0  0  0  0
 10 28  1  0  0  0  0
 10 29  1  0  0  0  0
 11 12  2  0  0  0  0
 11 16  1  0  0  0  0
 12 13  1  0  0  0  0
 12 30  1  0  0  0  0
 13 14  2  0  0  0  0
 13 31  1  0  0  0  0
 14 15  1  0  0  0  0
 14 32  1  0  0  0  0
 15 16  2  0  0  0  0
 15 33  1  0  0  0  0
 16 34  1  0  0  0  0
 17 18  1  0  0  0  0
 17 19  1  0  0  0  0
 18 35  1  0  0  0  0
 18 36  1  0  0  0  0
 18 37  1  0  0  0  0
 19 20  2  0  0  0  0
 20 21  1  0  0  0  0
 21 38  1  0  0  0  0
M  END
$$$$
