2D_structures\o48_MMV565773_2D.pdb
 OpenBabel02272422463D

 42 45  0  0  1  0  0  0  0  0999 V2000
    2.2800    2.6510    0.0000 O   0  0  0  0  0  0  0  0  0  0  0  0
    2.5890    1.1830    0.0000 C   0  0  0  0  0  0  0  0  0  0  0  0
    1.4710    0.1820    0.0000 C   0  0  0  0  0  0  0  0  0  0  0  0
    1.7800   -1.2860    0.0000 C   0  0  0  0  0  0  0  0  0  0  0  0
    3.2050   -1.7530    0.0000 C   0  0  0  0  0  0  0  0  0  0  0  0
    4.3220   -0.7520    0.0000 C   0  0  0  0  0  0  0  0  0  0  0  0
    5.7480   -1.2190    0.0000 C   0  0  0  0  0  0  0  0  0  0  0  0
    6.8650   -0.2180    0.0000 C   0  0  0  0  0  0  0  0  0  0  0  0
    6.5570    1.2500    0.0000 C   0  0  0  0  0  0  0  0  0  0  0  0
    5.1310    1.7170    0.0000 N   0  0  0  0  0  0  0  0  0  0  0  0
    4.0140    0.7160    0.0000 C   0  0  0  0  0  0  0  0  0  0  0  0
    0.0460    0.6490    0.0000 C   0  0  1  0  0  0  0  0  0  0  0  0
   -0.4210   -0.7760    0.0000 N   0  0  0  0  0  0  0  0  0  0  0  0
   -1.8890   -1.0850    0.0000 C   0  0  0  0  0  0  0  0  0  0  0  0
   -2.3560   -2.5100    0.0000 C   0  0  0  0  0  0  0  0  0  0  0  0
   -3.8240   -2.8180    0.0000 C   0  0  0  0  0  0  0  0  0  0  0  0
   -4.8250   -1.7010    0.0000 C   0  0  0  0  0  0  0  0  0  0  0  0
   -4.3580   -0.2760    0.0000 C   0  0  0  0  0  0  0  0  0  0  0  0
   -2.8900    0.0330    0.0000 N   0  0  0  0  0  0  0  0  0  0  0  0
   -1.3790    1.1160    0.0000 C   0  0  0  0  0  0  0  0  0  0  0  0
   -1.6880    2.5840    0.0000 C   0  0  0  0  0  0  0  0  0  0  0  0
   -3.1130    3.0510    0.0000 C   0  0  0  0  0  0  0  0  0  0  0  0
   -4.2300    2.0500    0.0000 C   0  0  0  0  0  0  0  0  0  0  0  0
   -3.9220    0.5820    0.0000 C   0  0  0  0  0  0  0  0  0  0  0  0
   -2.4970    0.1150    0.0000 C   0  0  0  0  0  0  0  0  0  0  0  0
    0.8550    3.1180    0.0000 H   0  0  0  0  0  0  0  0  0  0  0  0
    0.7930   -2.4150    0.0000 H   0  0  0  0  0  0  0  0  0  0  0  0
    3.5140   -3.2210    0.0000 H   0  0  0  0  0  0  0  0  0  0  0  0
    6.0560   -2.6870    0.0000 H   0  0  0  0  0  0  0  0  0  0  0  0
    8.2900   -0.6850    0.0000 H   0  0  0  0  0  0  0  0  0  0  0  0
    7.6740    2.2510    0.0000 H   0  0  0  0  0  0  0  0  0  0  0  0
    0.5130    2.0750    0.0000 H   0  0  0  0  0  0  0  0  0  0  0  0
    0.4360   -2.0070    0.0000 H   0  0  0  0  0  0  0  0  0  0  0  0
   -1.3550   -3.6270    0.0000 H   0  0  0  0  0  0  0  0  0  0  0  0
   -4.2910   -4.2440    0.0000 H   0  0  0  0  0  0  0  0  0  0  0  0
   -6.2930   -2.0100    0.0000 H   0  0  0  0  0  0  0  0  0  0  0  0
   -5.3590    0.8410    0.0000 H   0  0  0  0  0  0  0  0  0  0  0  0
   -0.5710    3.5850    0.0000 H   0  0  0  0  0  0  0  0  0  0  0  0
   -3.4220    4.5190    0.0000 H   0  0  0  0  0  0  0  0  0  0  0  0
   -5.6560    2.5170    0.0000 H   0  0  0  0  0  0  0  0  0  0  0  0
   -5.2480   -0.1190    0.0000 H   0  0  0  0  0  0  0  0  0  0  0  0
   -2.5530   -1.3840    0.0000 H   0  0  0  0  0  0  0  0  0  0  0  0
  1  2  1  0  0  0  0
  1 26  1  0  0  0  0
  2  3  2  0  0  0  0
  2 11  1  0  0  0  0
  3  4  1  0  0  0  0
  3 12  1  0  0  0  0
  4  5  2  0  0  0  0
  4 27  1  0  0  0  0
  5  6  1  0  0  0  0
  5 28  1  0  0  0  0
  6  7  2  0  0  0  0
  6 11  1  0  0  0  0
  7  8  1  0  0  0  0
  7 29  1  0  0  0  0
  8  9  2  0  0  0  0
  8 30  1  0  0  0  0
  9 10  1  0  0  0  0
  9 31  1  0  0  0  0
 10 11  2  0  0  0  0
 12 13  1  0  0  0  0
 12 20  1  0  0  0  0
 12 32  1  6  0  0  0
 13 14  1  0  0  0  0
 13 33  1  0  0  0  0
 14 15  2  0  0  0  0
 14 19  1  0  0  0  0
 15 16  1  0  0  0  0
 15 34  1  0  0  0  0
 16 17  2  0  0  0  0
 16 35  1  0  0  0  0
 17 18  1  0  0  0  0
 17 36  1  0  0  0  0
 18 19  2  0  0  0  0
 18 37  1  0  0  0  0
 20 21  2  0  0  0  0
 20 25  1  0  0  0  0
 21 22  1  0  0  0  0
 21 38  1  0  0  0  0
 22 23  2  0  0  0  0
 22 39  1  0  0  0  0
 23 24  1  0  0  0  0
 23 40  1  0  0  0  0
 24 25  2  0  0  0  0
 24 41  1  0  0  0  0
 25 42  1  0  0  0  0
M  END
$$$$
