2D_structures\o62_MMV1581545_2D.pdb
 OpenBabel02272422463D

 30 32  0  0  0  0  0  0  0  0999 V2000
   -5.0080   -1.0160    0.0000 C   0  0  0  0  0  0  0  0  0  0  0  0
   -3.6460   -0.3900    0.0000 C   0  0  0  0  0  0  0  0  0  0  0  0
   -3.5070    1.1040    0.0000 C   0  0  0  0  0  0  0  0  0  0  0  0
   -2.1440    1.7310    0.0000 C   0  0  0  0  0  0  0  0  0  0  0  0
   -2.0060    3.2240    0.0000 O   0  0  0  0  0  0  0  0  0  0  0  0
   -0.9200    0.8640    0.0000 C   0  0  0  0  0  0  0  0  0  0  0  0
    0.4430    1.4900    0.0000 C   0  0  0  0  0  0  0  0  0  0  0  0
    0.5810    2.9840    0.0000 O   0  0  0  0  0  0  0  0  0  0  0  0
    1.6670    0.6240    0.0000 C   0  0  0  0  0  0  0  0  0  0  0  0
    3.0300    1.2500    0.0000 C   0  0  0  0  0  0  0  0  0  0  0  0
    3.1680    2.7440    0.0000 O   0  0  0  0  0  0  0  0  0  0  0  0
    4.2540    0.3830    0.0000 C   0  0  0  0  0  0  0  0  0  0  0  0
    5.6170    1.0100    0.0000 I   0  0  0  0  0  0  0  0  0  0  0  0
    4.1150   -1.1100    0.0000 C   0  0  0  0  0  0  0  0  0  0  0  0
    5.3390   -1.9770    0.0000 O   0  0  0  0  0  0  0  0  0  0  0  0
    2.7520   -1.7370    0.0000 C   0  0  0  0  0  0  0  0  0  0  0  0
    2.6140   -3.2300    0.0000 I   0  0  0  0  0  0  0  0  0  0  0  0
    1.5280   -0.8700    0.0000 C   0  0  0  0  0  0  0  0  0  0  0  0
    0.1650   -1.4970    0.0000 C   0  0  0  0  0  0  0  0  0  0  0  0
    0.0270   -2.9900    0.0000 O   0  0  0  0  0  0  0  0  0  0  0  0
   -1.0590   -0.6300    0.0000 C   0  0  0  0  0  0  0  0  0  0  0  0
   -2.4210   -1.2570    0.0000 C   0  0  0  0  0  0  0  0  0  0  0  0
   -6.3710   -1.6430    0.0000 H   0  0  0  0  0  0  0  0  0  0  0  0
   -5.6350    0.3460    0.0000 H   0  0  0  0  0  0  0  0  0  0  0  0
   -4.3820   -2.3790    0.0000 H   0  0  0  0  0  0  0  0  0  0  0  0
   -4.7310    1.9710    0.0000 H   0  0  0  0  0  0  0  0  0  0  0  0
   -0.6430    3.8510    0.0000 H   0  0  0  0  0  0  0  0  0  0  0  0
    4.5310    3.3710    0.0000 H   0  0  0  0  0  0  0  0  0  0  0  0
    5.2010   -3.4710    0.0000 H   0  0  0  0  0  0  0  0  0  0  0  0
   -2.5600   -2.7500    0.0000 H   0  0  0  0  0  0  0  0  0  0  0  0
  1  2  1  0  0  0  0
  1 23  1  0  0  0  0
  1 24  1  0  0  0  0
  1 25  1  0  0  0  0
  2  3  2  0  0  0  0
  2 22  1  0  0  0  0
  3  4  1  0  0  0  0
  3 26  1  0  0  0  0
  4  5  1  0  0  0  0
  4  6  2  0  0  0  0
  5 27  1  0  0  0  0
  6  7  1  0  0  0  0
  6 21  1  0  0  0  0
  7  8  2  0  0  0  0
  7  9  1  0  0  0  0
  9 10  2  0  0  0  0
  9 18  1  0  0  0  0
 10 11  1  0  0  0  0
 10 12  1  0  0  0  0
 11 28  1  0  0  0  0
 12 13  1  0  0  0  0
 12 14  2  0  0  0  0
 14 15  1  0  0  0  0
 14 16  1  0  0  0  0
 15 29  1  0  0  0  0
 16 17  1  0  0  0  0
 16 18  2  0  0  0  0
 18 19  1  0  0  0  0
 19 20  2  0  0  0  0
 19 21  1  0  0  0  0
 21 22  2  0  0  0  0
 22 30  1  0  0  0  0
M  END
$$$$
