2D_structures\o65_MMV1580849_2D.pdb
 OpenBabel02272422463D

 39 40  0  0  0  0  0  0  0  0999 V2000
    1.3890   -4.5450    0.0000 C   0  0  0  0  0  0  0  0  0  0  0  0
    2.4500   -3.4850    0.0000 O   0  0  0  0  0  0  0  0  0  0  0  0
    2.0620   -2.0360    0.0000 C   0  0  0  0  0  0  0  0  0  0  0  0
    0.6130   -1.6470    0.0000 C   0  0  0  0  0  0  0  0  0  0  0  0
    0.2260   -0.1980    0.0000 C   0  0  0  0  0  0  0  0  0  0  0  0
   -1.2230    0.1900    0.0000 C   0  0  0  0  0  0  0  0  0  0  0  0
   -2.6720    0.5790    0.0000 C   0  0  0  0  0  0  0  0  0  0  0  0
   -3.0600    2.0280    0.0000 C   0  0  0  0  0  0  0  0  0  0  0  0
   -4.5090    2.4160    0.0000 N   0  0  0  0  0  0  0  0  0  0  0  0
   -5.5700    1.3560    0.0000 C   0  0  0  0  0  0  0  0  0  0  0  0
   -7.0190    1.7440    0.0000 N   0  0  0  0  0  0  0  0  0  0  0  0
   -5.1820   -0.0930    0.0000 N   0  0  0  0  0  0  0  0  0  0  0  0
   -3.7330   -0.4820    0.0000 C   0  0  0  0  0  0  0  0  0  0  0  0
   -3.3450   -1.9310    0.0000 N   0  0  0  0  0  0  0  0  0  0  0  0
    1.2860    0.8620    0.0000 C   0  0  0  0  0  0  0  0  0  0  0  0
    2.7350    0.4740    0.0000 C   0  0  0  0  0  0  0  0  0  0  0  0
    3.7960    1.5340    0.0000 C   0  0  0  0  0  0  0  0  0  0  0  0
    4.8570    2.5940    0.0000 C   0  0  0  0  0  0  0  0  0  0  0  0
    4.4690    4.0430    0.0000 C   0  0  0  0  0  0  0  0  0  0  0  0
    3.1230   -0.9750    0.0000 C   0  0  0  0  0  0  0  0  0  0  0  0
    4.5720   -1.3640    0.0000 O   0  0  0  0  0  0  0  0  0  0  0  0
    0.3280   -5.6060    0.0000 H   0  0  0  0  0  0  0  0  0  0  0  0
    2.4500   -5.6060    0.0000 H   0  0  0  0  0  0  0  0  0  0  0  0
    0.3290   -3.4840    0.0000 H   0  0  0  0  0  0  0  0  0  0  0  0
   -0.4470   -2.7080    0.0000 H   0  0  0  0  0  0  0  0  0  0  0  0
   -0.8350    1.6390    0.0000 H   0  0  0  0  0  0  0  0  0  0  0  0
   -1.6120   -1.2590    0.0000 H   0  0  0  0  0  0  0  0  0  0  0  0
   -1.9990    3.0880    0.0000 H   0  0  0  0  0  0  0  0  0  0  0  0
   -7.4060    3.1930    0.0000 H   0  0  0  0  0  0  0  0  0  0  0  0
   -8.0790    0.6840    0.0000 H   0  0  0  0  0  0  0  0  0  0  0  0
   -4.4060   -2.9910    0.0000 H   0  0  0  0  0  0  0  0  0  0  0  0
   -1.8960   -2.3190    0.0000 H   0  0  0  0  0  0  0  0  0  0  0  0
    0.8980    2.3110    0.0000 H   0  0  0  0  0  0  0  0  0  0  0  0
    4.8570    0.4730    0.0000 H   0  0  0  0  0  0  0  0  0  0  0  0
    2.7360    2.5950    0.0000 H   0  0  0  0  0  0  0  0  0  0  0  0
    6.3060    2.2060    0.0000 H   0  0  0  0  0  0  0  0  0  0  0  0
    5.5300    5.1040    0.0000 H   0  0  0  0  0  0  0  0  0  0  0  0
    3.0200    4.4320    0.0000 H   0  0  0  0  0  0  0  0  0  0  0  0
    4.9600   -2.8130    0.0000 H   0  0  0  0  0  0  0  0  0  0  0  0
  1  2  1  0  0  0  0
  1 22  1  0  0  0  0
  1 23  1  0  0  0  0
  1 24  1  0  0  0  0
  2  3  1  0  0  0  0
  3  4  2  0  0  0  0
  3 20  1  0  0  0  0
  4  5  1  0  0  0  0
  4 25  1  0  0  0  0
  5  6  1  0  0  0  0
  5 15  2  0  0  0  0
  6  7  1  0  0  0  0
  6 26  1  0  0  0  0
  6 27  1  0  0  0  0
  7  8  2  0  0  0  0
  7 13  1  0  0  0  0
  8  9  1  0  0  0  0
  8 28  1  0  0  0  0
  9 10  2  0  0  0  0
 10 11  1  0  0  0  0
 10 12  1  0  0  0  0
 11 29  1  0  0  0  0
 11 30  1  0  0  0  0
 12 13  2  0  0  0  0
 13 14  1  0  0  0  0
 14 31  1  0  0  0  0
 14 32  1  0  0  0  0
 15 16  1  0  0  0  0
 15 33  1  0  0  0  0
 16 17  1  0  0  0  0
 16 20  2  0  0  0  0
 17 18  1  0  0  0  0
 17 34  1  0  0  0  0
 17 35  1  0  0  0  0
 18 19  2  0  0  0  0
 18 36  1  0  0  0  0
 19 37  1  0  0  0  0
 19 38  1  0  0  0  0
 20 21  1  0  0  0  0
 21 39  1  0  0  0  0
M  END
$$$$
