2D_structures\o66_MMV1580839_2D.pdb
 OpenBabel02272422463D

 46 49  0  0  1  0  0  0  0  0999 V2000
    0.8650   -4.2710    0.0000 N   0  0  0  0  0  0  0  0  0  0  0  0
    0.9670   -2.7740    0.0000 C   0  0  0  0  0  0  0  0  0  0  0  0
   -0.2780   -1.9370    0.0000 N   0  0  0  0  0  4  0  0  0  0  0  0
   -0.1760   -0.4410    0.0000 C   0  0  0  0  0  0  0  0  0  0  0  0
   -1.4210    0.3960    0.0000 N   0  0  0  0  0  0  0  0  0  0  0  0
   -2.7680   -0.2640    0.0000 C   0  0  1  0  0  0  0  0  0  0  0  0
   -3.9490   -1.1900    0.0000 C   0  0  0  0  0  0  0  0  0  0  0  0
   -5.1940   -0.3530    0.0000 C   0  0  0  0  0  0  0  0  0  0  0  0
   -6.6490   -0.7190    0.0000 C   0  0  0  0  0  0  0  0  0  0  0  0
   -7.6920    0.3590    0.0000 C   0  0  0  0  0  0  0  0  0  0  0  0
   -7.2810    1.8010    0.0000 C   0  0  0  0  0  0  0  0  0  0  0  0
   -8.3250    2.8780    0.0000 F   0  0  0  0  0  0  0  0  0  0  0  0
   -5.8270    2.1670    0.0000 C   0  0  0  0  0  0  0  0  0  0  0  0
   -4.7830    1.0900    0.0000 C   0  0  0  0  0  0  0  0  0  0  0  0
   -3.2840    1.1440    0.0000 C   0  0  0  0  0  0  0  0  0  0  0  0
    1.1710    0.2190    0.0000 N   0  0  0  0  0  0  0  0  0  0  0  0
    2.4160   -0.6180    0.0000 C   0  0  0  0  0  0  0  0  0  0  0  0
    2.3140   -2.1140    0.0000 N   0  0  0  0  0  0  0  0  0  0  0  0
    3.7630    0.0420    0.0000 N   0  0  0  0  0  0  0  0  0  0  0  0
    5.0080   -0.7940    0.0000 C   0  0  0  0  0  0  0  0  0  0  0  0
    6.3550   -0.1340    0.0000 C   0  0  0  0  0  0  0  0  0  0  0  0
    6.4570    1.3620    0.0000 C   0  0  0  0  0  0  0  0  0  0  0  0
    5.2120    2.1990    0.0000 C   0  0  0  0  0  0  0  0  0  0  0  0
    3.8650    1.5390    0.0000 C   0  0  0  0  0  0  0  0  0  0  0  0
   -0.4820   -4.9300    0.0000 H   0  0  0  0  0  0  0  0  0  0  0  0
    2.1100   -5.1070    0.0000 H   0  0  0  0  0  0  0  0  0  0  0  0
   -1.1920    1.5890    0.0000 H   0  0  0  0  0  0  0  0  0  0  0  0
   -1.9710   -1.5350    0.0000 H   0  0  0  0  0  0  0  0  0  0  0  0
   -2.9050   -2.2670    0.0000 H   0  0  0  0  0  0  0  0  0  0  0  0
   -4.9110   -2.3400    0.0000 H   0  0  0  0  0  0  0  0  0  0  0  0
   -7.0600   -2.1610    0.0000 H   0  0  0  0  0  0  0  0  0  0  0  0
   -9.1470   -0.0070    0.0000 H   0  0  0  0  0  0  0  0  0  0  0  0
   -5.4160    3.6090    0.0000 H   0  0  0  0  0  0  0  0  0  0  0  0
   -3.4950    2.6290    0.0000 H   0  0  0  0  0  0  0  0  0  0  0  0
   -2.1500    1.5820    0.0000 H   0  0  0  0  0  0  0  0  0  0  0  0
    5.8920   -2.0060    0.0000 H   0  0  0  0  0  0  0  0  0  0  0  0
    3.9680   -1.8750    0.0000 H   0  0  0  0  0  0  0  0  0  0  0  0
    7.8460    0.0250    0.0000 H   0  0  0  0  0  0  0  0  0  0  0  0
    6.7710   -1.5760    0.0000 H   0  0  0  0  0  0  0  0  0  0  0  0
    7.0650    2.7330    0.0000 H   0  0  0  0  0  0  0  0  0  0  0  0
    7.9130    1.0020    0.0000 H   0  0  0  0  0  0  0  0  0  0  0  0
    4.3280    3.4110    0.0000 H   0  0  0  0  0  0  0  0  0  0  0  0
    6.2520    3.2790    0.0000 H   0  0  0  0  0  0  0  0  0  0  0  0
    2.3730    1.3790    0.0000 H   0  0  0  0  0  0  0  0  0  0  0  0
    3.4490    2.9800    0.0000 H   0  0  0  0  0  0  0  0  0  0  0  0
    3.1312   -2.6631    0.0000 H   0  0  0  0  0  0  0  0  0  0  0  0
  1  2  1  0  0  0  0
  1 25  1  0  0  0  0
  1 26  1  0  0  0  0
  2  3  2  0  0  0  0
  2 18  1  0  0  0  0
  3  4  2  0  0  0  0
  4  5  1  0  0  0  0
  4 16  1  0  0  0  0
  5  6  1  0  0  0  0
  5 27  1  0  0  0  0
  6  7  1  0  0  0  0
  6 15  1  0  0  0  0
  6 28  1  6  0  0  0
  7  8  1  0  0  0  0
  7 29  1  0  0  0  0
  7 30  1  0  0  0  0
  8  9  2  0  0  0  0
  8 14  1  0  0  0  0
  9 10  1  0  0  0  0
  9 31  1  0  0  0  0
 10 11  2  0  0  0  0
 10 32  1  0  0  0  0
 11 12  1  0  0  0  0
 11 13  1  0  0  0  0
 13 14  2  0  0  0  0
 13 33  1  0  0  0  0
 14 15  1  0  0  0  0
 15 34  1  0  0  0  0
 15 35  1  0  0  0  0
 16 17  2  0  0  0  0
 17 18  1  0  0  0  0
 17 19  1  0  0  0  0
 18 46  1  0  0  0  0
 19 20  1  0  0  0  0
 19 24  1  0  0  0  0
 20 21  1  0  0  0  0
 20 36  1  0  0  0  0
 20 37  1  0  0  0  0
 21 22  1  0  0  0  0
 21 38  1  0  0  0  0
 21 39  1  0  0  0  0
 22 23  1  0  0  0  0
 22 40  1  0  0  0  0
 22 41  1  0  0  0  0
 23 24  1  0  0  0  0
 23 42  1  0  0  0  0
 23 43  1  0  0  0  0
 24 44  1  0  0  0  0
 24 45  1  0  0  0  0
M  END
$$$$
