2D_structures\o69_MMV099714_2D.pdb
 OpenBabel02272422463D

 57 61  0  0  0  0  0  0  0  0999 V2000
    0.2140   -2.7700    0.0000 N   0  0  0  0  0  0  0  0  0  0  0  0
    0.4850   -1.2940    0.0000 C   0  0  0  0  0  0  0  0  0  0  0  0
    1.8370   -0.6460    0.0000 C   0  0  0  0  0  0  0  0  0  0  0  0
    3.1570   -1.3590    0.0000 C   0  0  0  0  0  0  0  0  0  0  0  0
    3.1990   -2.8590    0.0000 O   0  0  0  0  0  0  0  0  0  0  0  0
    4.4350   -0.5730    0.0000 N   0  0  0  0  0  0  0  0  0  0  0  0
    5.7540   -1.2860    0.0000 C   0  0  0  0  0  0  0  0  0  0  0  0
    7.0740   -2.0000    0.0000 C   0  0  0  0  0  0  0  0  0  0  0  0
    7.2720   -3.4860    0.0000 O   0  0  0  0  0  0  0  0  0  0  0  0
    8.7480   -3.7570    0.0000 C   0  0  0  0  0  0  0  0  0  0  0  0
    9.4610   -2.4370    0.0000 C   0  0  0  0  0  0  0  0  0  0  0  0
    8.4260   -1.3510    0.0000 C   0  0  0  0  0  0  0  0  0  0  0  0
    1.6390    0.8410    0.0000 C   0  0  0  0  0  0  0  0  0  0  0  0
    2.6110    1.9830    0.0000 N   0  0  0  0  0  0  0  0  0  0  0  0
    2.1080    3.3960    0.0000 C   0  0  0  0  0  0  0  0  0  0  0  0
    3.0800    4.5390    0.0000 C   0  0  0  0  0  0  0  0  0  0  0  0
    2.5760    5.9520    0.0000 C   0  0  0  0  0  0  0  0  0  0  0  0
    1.1010    6.2220    0.0000 C   0  0  0  0  0  0  0  0  0  0  0  0
    0.1290    5.0800    0.0000 C   0  0  0  0  0  0  0  0  0  0  0  0
    0.6320    3.6670    0.0000 C   0  0  0  0  0  0  0  0  0  0  0  0
   -0.3400    2.5240    0.0000 N   0  0  0  0  0  0  0  0  0  0  0  0
    0.1640    1.1110    0.0000 C   0  0  0  0  0  0  0  0  0  0  0  0
   -0.5500   -0.2080    0.0000 N   0  0  0  0  0  0  0  0  0  0  0  0
   -2.0370   -0.4070    0.0000 C   0  0  0  0  0  0  0  0  0  0  0  0
   -3.5230   -0.6050    0.0000 C   0  0  0  0  0  0  0  0  0  0  0  0
   -5.0100   -0.8040    0.0000 N   0  0  0  0  0  0  0  0  0  0  0  0
   -5.9260    0.3840    0.0000 C   0  0  0  0  0  0  0  0  0  0  0  0
   -7.4120    0.1860    0.0000 C   0  0  0  0  0  0  0  0  0  0  0  0
   -7.9840   -1.2010    0.0000 C   0  0  0  0  0  0  0  0  0  0  0  0
   -7.0680   -2.3890    0.0000 C   0  0  0  0  0  0  0  0  0  0  0  0
   -5.5820   -2.1910    0.0000 C   0  0  0  0  0  0  0  0  0  0  0  0
   -1.1990   -3.2730    0.0000 H   0  0  0  0  0  0  0  0  0  0  0  0
    1.3570   -3.7420    0.0000 H   0  0  0  0  0  0  0  0  0  0  0  0
    4.3920    0.9260    0.0000 H   0  0  0  0  0  0  0  0  0  0  0  0
    5.0410   -2.6060    0.0000 H   0  0  0  0  0  0  0  0  0  0  0  0
    6.4670    0.0330    0.0000 H   0  0  0  0  0  0  0  0  0  0  0  0
    9.3960   -5.1100    0.0000 H   0  0  0  0  0  0  0  0  0  0  0  0
   10.9480   -2.2390    0.0000 H   0  0  0  0  0  0  0  0  0  0  0  0
    8.6970    0.1240    0.0000 H   0  0  0  0  0  0  0  0  0  0  0  0
    4.5550    4.2680    0.0000 H   0  0  0  0  0  0  0  0  0  0  0  0
    3.5480    7.0940    0.0000 H   0  0  0  0  0  0  0  0  0  0  0  0
    0.5970    7.6350    0.0000 H   0  0  0  0  0  0  0  0  0  0  0  0
   -1.3470    5.3500    0.0000 H   0  0  0  0  0  0  0  0  0  0  0  0
   -1.8380   -1.8940    0.0000 H   0  0  0  0  0  0  0  0  0  0  0  0
   -2.2350    1.0800    0.0000 H   0  0  0  0  0  0  0  0  0  0  0  0
   -3.5390    0.8950    0.0000 H   0  0  0  0  0  0  0  0  0  0  0  0
   -3.1450   -2.0570    0.0000 H   0  0  0  0  0  0  0  0  0  0  0  0
   -6.3790    1.8140    0.0000 H   0  0  0  0  0  0  0  0  0  0  0  0
   -4.6910    1.2360    0.0000 H   0  0  0  0  0  0  0  0  0  0  0  0
   -8.8770    0.5080    0.0000 H   0  0  0  0  0  0  0  0  0  0  0  0
   -7.3500    1.6840    0.0000 H   0  0  0  0  0  0  0  0  0  0  0  0
   -8.9950   -2.3090    0.0000 H   0  0  0  0  0  0  0  0  0  0  0  0
   -9.2500   -0.3980    0.0000 H   0  0  0  0  0  0  0  0  0  0  0  0
   -6.6150   -3.8190    0.0000 H   0  0  0  0  0  0  0  0  0  0  0  0
   -8.3980   -3.0850    0.0000 H   0  0  0  0  0  0  0  0  0  0  0  0
   -4.1670   -2.6890    0.0000 H   0  0  0  0  0  0  0  0  0  0  0  0
   -5.6440   -3.6900    0.0000 H   0  0  0  0  0  0  0  0  0  0  0  0
  1  2  1  0  0  0  0
  1 32  1  0  0  0  0
  1 33  1  0  0  0  0
  2  3  2  0  0  0  0
  2 23  1  0  0  0  0
  3  4  1  0  0  0  0
  3 13  1  0  0  0  0
  4  5  2  0  0  0  0
  4  6  1  0  0  0  0
  6  7  1  0  0  0  0
  6 34  1  0  0  0  0
  7  8  1  0  0  0  0
  7 35  1  0  0  0  0
  7 36  1  0  0  0  0
  8  9  1  0  0  0  0
  8 12  2  0  0  0  0
  9 10  1  0  0  0  0
 10 11  2  0  0  0  0
 10 37  1  0  0  0  0
 11 12  1  0  0  0  0
 11 38  1  0  0  0  0
 12 39  1  0  0  0  0
 13 14  2  0  0  0  0
 13 22  1  0  0  0  0
 14 15  1  0  0  0  0
 15 16  2  0  0  0  0
 15 20  1  0  0  0  0
 16 17  1  0  0  0  0
 16 40  1  0  0  0  0
 17 18  2  0  0  0  0
 17 41  1  0  0  0  0
 18 19  1  0  0  0  0
 18 42  1  0  0  0  0
 19 20  2  0  0  0  0
 19 43  1  0  0  0  0
 20 21  1  0  0  0  0
 21 22  2  0  0  0  0
 22 23  1  0  0  0  0
 23 24  1  0  0  0  0
 24 25  1  0  0  0  0
 24 44  1  0  0  0  0
 24 45  1  0  0  0  0
 25 26  1  0  0  0  0
 25 46  1  0  0  0  0
 25 47  1  0  0  0  0
 26 27  1  0  0  0  0
 26 31  1  0  0  0  0
 27 28  1  0  0  0  0
 27 48  1  0  0  0  0
 27 49  1  0  0  0  0
 28 29  1  0  0  0  0
 28 50  1  0  0  0  0
 28 51  1  0  0  0  0
 29 30  1  0  0  0  0
 29 52  1  0  0  0  0
 29 53  1  0  0  0  0
 30 31  1  0  0  0  0
 30 54  1  0  0  0  0
 30 55  1  0  0  0  0
 31 56  1  0  0  0  0
 31 57  1  0  0  0  0
M  END
$$$$
