2D_structures\o70_MMV1578891_2D.pdb
 OpenBabel02272422463D

 34 36  0  0  0  0  0  0  0  0999 V2000
   -1.8970    1.8860    0.0000 O   0  0  0  0  0  0  0  0  0  0  0  0
   -1.4810    0.4450    0.0000 C   0  0  0  0  0  0  0  0  0  0  0  0
   -0.0240    0.0850    0.0000 C   0  0  0  0  0  0  0  0  0  0  0  0
    1.4320   -0.2750    0.0000 N   0  0  0  0  0  0  0  0  0  0  0  0
    1.8480   -1.7160    0.0000 C   0  0  0  0  0  0  0  0  0  0  0  0
    3.3040   -2.0770    0.0000 N   0  0  0  0  0  0  0  0  0  0  0  0
    4.3440   -0.9960    0.0000 C   0  0  0  0  0  0  0  0  0  0  0  0
    5.8000   -1.3560    0.0000 C   0  0  0  0  0  0  0  0  0  0  0  0
    6.8400   -0.2750    0.0000 C   0  0  0  0  0  0  0  0  0  0  0  0
    6.4240    1.1660    0.0000 C   0  0  0  0  0  0  0  0  0  0  0  0
    4.9680    1.5260    0.0000 C   0  0  0  0  0  0  0  0  0  0  0  0
    3.9280    0.4460    0.0000 C   0  0  0  0  0  0  0  0  0  0  0  0
    2.4720    0.8060    0.0000 C   0  0  0  0  0  0  0  0  0  0  0  0
    2.0550    2.2470    0.0000 O   0  0  0  0  0  0  0  0  0  0  0  0
   -2.5210   -0.6360    0.0000 N   0  0  0  0  0  0  0  0  0  0  0  0
   -3.9770   -0.2760    0.0000 C   0  0  0  0  0  0  0  0  0  0  0  0
   -4.3930    1.1650    0.0000 C   0  0  0  0  0  0  0  0  0  0  0  0
   -5.8490    1.5250    0.0000 C   0  0  0  0  0  0  0  0  0  0  0  0
   -6.8890    0.4440    0.0000 C   0  0  0  0  0  0  0  0  0  0  0  0
   -6.4730   -0.9970    0.0000 C   0  0  0  0  0  0  0  0  0  0  0  0
   -5.0170   -1.3570    0.0000 C   0  0  0  0  0  0  0  0  0  0  0  0
   -0.3850   -1.3710    0.0000 H   0  0  0  0  0  0  0  0  0  0  0  0
    0.3360    1.5410    0.0000 H   0  0  0  0  0  0  0  0  0  0  0  0
    0.8080   -2.7970    0.0000 H   0  0  0  0  0  0  0  0  0  0  0  0
    6.2160   -2.7970    0.0000 H   0  0  0  0  0  0  0  0  0  0  0  0
    8.2960   -0.6350    0.0000 H   0  0  0  0  0  0  0  0  0  0  0  0
    7.4640    2.2470    0.0000 H   0  0  0  0  0  0  0  0  0  0  0  0
    4.5510    2.9680    0.0000 H   0  0  0  0  0  0  0  0  0  0  0  0
   -2.1040   -2.0770    0.0000 H   0  0  0  0  0  0  0  0  0  0  0  0
   -3.3530    2.2460    0.0000 H   0  0  0  0  0  0  0  0  0  0  0  0
   -6.2650    2.9660    0.0000 H   0  0  0  0  0  0  0  0  0  0  0  0
   -8.3450    0.8040    0.0000 H   0  0  0  0  0  0  0  0  0  0  0  0
   -7.5130   -2.0780    0.0000 H   0  0  0  0  0  0  0  0  0  0  0  0
   -4.6000   -2.7980    0.0000 H   0  0  0  0  0  0  0  0  0  0  0  0
  1  2  2  0  0  0  0
  2  3  1  0  0  0  0
  2 15  1  0  0  0  0
  3  4  1  0  0  0  0
  3 22  1  0  0  0  0
  3 23  1  0  0  0  0
  4  5  1  0  0  0  0
  4 13  1  0  0  0  0
  5  6  2  0  0  0  0
  5 24  1  0  0  0  0
  6  7  1  0  0  0  0
  7  8  2  0  0  0  0
  7 12  1  0  0  0  0
  8  9  1  0  0  0  0
  8 25  1  0  0  0  0
  9 10  2  0  0  0  0
  9 26  1  0  0  0  0
 10 11  1  0  0  0  0
 10 27  1  0  0  0  0
 11 12  2  0  0  0  0
 11 28  1  0  0  0  0
 12 13  1  0  0  0  0
 13 14  2  0  0  0  0
 15 16  1  0  0  0  0
 15 29  1  0  0  0  0
 16 17  2  0  0  0  0
 16 21  1  0  0  0  0
 17 18  1  0  0  0  0
 17 30  1  0  0  0  0
 18 19  2  0  0  0  0
 18 31  1  0  0  0  0
 19 20  1  0  0  0  0
 19 32  1  0  0  0  0
 20 21  2  0  0  0  0
 20 33  1  0  0  0  0
 21 34  1  0  0  0  0
M  END
$$$$
