2D_structures\o71_MMV124656_2D.pdb
 OpenBabel02272422463D

 39 40  0  0  0  0  0  0  0  0999 V2000
   -8.1830    1.0600    0.0000 C   0  0  0  0  0  0  0  0  0  0  0  0
   -7.1660   -0.0430    0.0000 C   0  0  0  0  0  0  0  0  0  0  0  0
   -6.1490   -1.1450    0.0000 O   0  0  0  0  0  0  0  0  0  0  0  0
   -4.6850   -0.8160    0.0000 C   0  0  0  0  0  0  0  0  0  0  0  0
   -4.2390    0.6160    0.0000 C   0  0  0  0  0  0  0  0  0  0  0  0
   -2.7760    0.9460    0.0000 C   0  0  0  0  0  0  0  0  0  0  0  0
   -1.7580   -0.1570    0.0000 C   0  0  0  0  0  0  0  0  0  0  0  0
   -2.2050   -1.5890    0.0000 C   0  0  0  0  0  0  0  0  0  0  0  0
   -3.6680   -1.9190    0.0000 C   0  0  0  0  0  0  0  0  0  0  0  0
   -0.2950    0.1730    0.0000 C   0  0  0  0  0  0  0  0  0  0  0  0
    0.1510    1.6050    0.0000 O   0  0  0  0  0  0  0  0  0  0  0  0
    0.7220   -0.9300    0.0000 N   0  0  0  0  0  0  0  0  0  0  0  0
    2.1850   -0.6010    0.0000 C   0  0  0  0  0  0  0  0  0  0  0  0
    3.6490   -0.2710    0.0000 C   0  0  0  0  0  0  0  0  0  0  0  0
    5.1120    0.0580    0.0000 C   0  0  0  0  0  0  0  0  0  0  0  0
    6.1290   -1.0440    0.0000 C   0  0  0  0  0  0  0  0  0  0  0  0
    7.5920   -0.7150    0.0000 C   0  0  0  0  0  0  0  0  0  0  0  0
    8.0390    0.7170    0.0000 C   0  0  0  0  0  0  0  0  0  0  0  0
    7.0220    1.8200    0.0000 C   0  0  0  0  0  0  0  0  0  0  0  0
    5.5580    1.4910    0.0000 C   0  0  0  0  0  0  0  0  0  0  0  0
   -9.2000    2.1620    0.0000 H   0  0  0  0  0  0  0  0  0  0  0  0
   -7.0800    2.0770    0.0000 H   0  0  0  0  0  0  0  0  0  0  0  0
   -9.2850    0.0430    0.0000 H   0  0  0  0  0  0  0  0  0  0  0  0
   -6.0630    0.9740    0.0000 H   0  0  0  0  0  0  0  0  0  0  0  0
   -8.2680   -1.0600    0.0000 H   0  0  0  0  0  0  0  0  0  0  0  0
   -5.2560    1.7190    0.0000 H   0  0  0  0  0  0  0  0  0  0  0  0
   -2.3290    2.3780    0.0000 H   0  0  0  0  0  0  0  0  0  0  0  0
   -1.1880   -2.6920    0.0000 H   0  0  0  0  0  0  0  0  0  0  0  0
   -4.1140   -3.3510    0.0000 H   0  0  0  0  0  0  0  0  0  0  0  0
    0.2760   -2.3620    0.0000 H   0  0  0  0  0  0  0  0  0  0  0  0
    1.8560    0.8630    0.0000 H   0  0  0  0  0  0  0  0  0  0  0  0
    2.5150   -2.0640    0.0000 H   0  0  0  0  0  0  0  0  0  0  0  0
    3.9780   -1.7340    0.0000 H   0  0  0  0  0  0  0  0  0  0  0  0
    3.3190    1.1920    0.0000 H   0  0  0  0  0  0  0  0  0  0  0  0
    5.6830   -2.4760    0.0000 H   0  0  0  0  0  0  0  0  0  0  0  0
    8.6090   -1.8170    0.0000 H   0  0  0  0  0  0  0  0  0  0  0  0
    9.5020    1.0470    0.0000 H   0  0  0  0  0  0  0  0  0  0  0  0
    7.4680    3.2520    0.0000 H   0  0  0  0  0  0  0  0  0  0  0  0
    4.5410    2.5930    0.0000 H   0  0  0  0  0  0  0  0  0  0  0  0
  1  2  1  0  0  0  0
  1 21  1  0  0  0  0
  1 22  1  0  0  0  0
  1 23  1  0  0  0  0
  2  3  1  0  0  0  0
  2 24  1  0  0  0  0
  2 25  1  0  0  0  0
  3  4  1  0  0  0  0
  4  5  2  0  0  0  0
  4  9  1  0  0  0  0
  5  6  1  0  0  0  0
  5 26  1  0  0  0  0
  6  7  2  0  0  0  0
  6 27  1  0  0  0  0
  7  8  1  0  0  0  0
  7 10  1  0  0  0  0
  8  9  2  0  0  0  0
  8 28  1  0  0  0  0
  9 29  1  0  0  0  0
 10 11  2  0  0  0  0
 10 12  1  0  0  0  0
 12 13  1  0  0  0  0
 12 30  1  0  0  0  0
 13 14  1  0  0  0  0
 13 31  1  0  0  0  0
 13 32  1  0  0  0  0
 14 15  1  0  0  0  0
 14 33  1  0  0  0  0
 14 34  1  0  0  0  0
 15 16  2  0  0  0  0
 15 20  1  0  0  0  0
 16 17  1  0  0  0  0
 16 35  1  0  0  0  0
 17 18  2  0  0  0  0
 17 36  1  0  0  0  0
 18 19  1  0  0  0  0
 18 37  1  0  0  0  0
 19 20  2  0  0  0  0
 19 38  1  0  0  0  0
 20 39  1  0  0  0  0
M  END
$$$$
