2D_structures\o76_MMV1578570_2D.pdb
 OpenBabel02272422463D

 46 48  0  0  1  0  0  0  0  0999 V2000
    7.1710   -0.8020    0.0000 C   0  0  0  0  0  0  0  0  0  0  0  0
    5.9150    0.0190    0.0000 C   0  0  0  0  0  0  0  0  0  0  0  0
    4.6600    0.8410    0.0000 C   0  0  1  0  0  0  0  0  0  0  0  0
    3.4050    1.6620    0.0000 C   0  0  0  0  0  0  0  0  0  0  0  0
    3.8390   -0.4140    0.0000 N   0  0  0  0  0  0  0  0  0  0  0  0
    2.3410   -0.3310    0.0000 C   0  0  0  0  0  0  0  0  0  0  0  0
    0.8440   -0.2470    0.0000 C   0  0  1  0  0  0  0  0  0  0  0  0
    0.7600   -1.7450    0.0000 O   0  0  0  0  0  0  0  0  0  0  0  0
   -0.6540   -0.1630    0.0000 C   0  0  0  0  0  0  0  0  0  0  0  0
   -2.1520   -0.0790    0.0000 N   0  0  0  0  0  0  0  0  0  0  0  0
   -2.9640    1.1820    0.0000 C   0  0  0  0  0  0  0  0  0  0  0  0
   -2.5710    2.6290    0.0000 C   0  0  0  0  0  0  0  0  0  0  0  0
   -3.6280    3.6930    0.0000 C   0  0  0  0  0  0  0  0  0  0  0  0
   -5.0780    3.3100    0.0000 C   0  0  0  0  0  0  0  0  0  0  0  0
   -6.1350    4.3750    0.0000 Cl  0  0  0  0  0  0  0  0  0  0  0  0
   -5.4710    1.8630    0.0000 C   0  0  0  0  0  0  0  0  0  0  0  0
   -4.4140    0.7980    0.0000 C   0  0  0  0  0  0  0  0  0  0  0  0
   -4.4980   -0.6990    0.0000 C   0  0  0  0  0  0  0  0  0  0  0  0
   -5.6670   -1.6390    0.0000 C   0  0  0  0  0  0  0  0  0  0  0  0
   -5.4380   -3.1210    0.0000 C   0  0  0  0  0  0  0  0  0  0  0  0
   -6.6070   -4.0610    0.0000 Cl  0  0  0  0  0  0  0  0  0  0  0  0
   -4.0390   -3.6640    0.0000 C   0  0  0  0  0  0  0  0  0  0  0  0
   -2.8700   -2.7240    0.0000 C   0  0  0  0  0  0  0  0  0  0  0  0
   -3.1000   -1.2420    0.0000 C   0  0  0  0  0  0  0  0  0  0  0  0
    8.4260   -1.6230    0.0000 H   0  0  0  0  0  0  0  0  0  0  0  0
    7.9920    0.4530    0.0000 H   0  0  0  0  0  0  0  0  0  0  0  0
    6.3490   -2.0570    0.0000 H   0  0  0  0  0  0  0  0  0  0  0  0
    5.2530   -1.3270    0.0000 H   0  0  0  0  0  0  0  0  0  0  0  0
    6.7370    1.2740    0.0000 H   0  0  0  0  0  0  0  0  0  0  0  0
    5.4820    2.0960    0.0000 H   0  0  0  0  0  0  0  0  0  0  0  0
    2.1500    2.4830    0.0000 H   0  0  0  0  0  0  0  0  0  0  0  0
    2.7590    1.1960    0.0000 H   0  0  0  0  0  0  0  0  0  0  0  0
    4.2270    2.9170    0.0000 H   0  0  0  0  0  0  0  0  0  0  0  0
    4.3470   -1.8260    0.0000 H   0  0  0  0  0  0  0  0  0  0  0  0
    2.4410   -1.8270    0.0000 H   0  0  0  0  0  0  0  0  0  0  0  0
    2.2880    0.4650    0.0000 H   0  0  0  0  0  0  0  0  0  0  0  0
    0.9270    1.2510    0.0000 H   0  0  0  0  0  0  0  0  0  0  0  0
    1.9060   -2.7130    0.0000 H   0  0  0  0  0  0  0  0  0  0  0  0
   -0.5700    1.3350    0.0000 H   0  0  0  0  0  0  0  0  0  0  0  0
   -0.7380   -1.6610    0.0000 H   0  0  0  0  0  0  0  0  0  0  0  0
   -1.1210    3.0120    0.0000 H   0  0  0  0  0  0  0  0  0  0  0  0
   -3.2340    5.1410    0.0000 H   0  0  0  0  0  0  0  0  0  0  0  0
   -6.9220    1.4800    0.0000 H   0  0  0  0  0  0  0  0  0  0  0  0
   -7.0660   -1.0970    0.0000 H   0  0  0  0  0  0  0  0  0  0  0  0
   -3.8100   -5.1460    0.0000 H   0  0  0  0  0  0  0  0  0  0  0  0
   -1.4720   -3.2670    0.0000 H   0  0  0  0  0  0  0  0  0  0  0  0
  1  2  1  0  0  0  0
  1 25  1  0  0  0  0
  1 26  1  0  0  0  0
  1 27  1  0  0  0  0
  2  3  1  0  0  0  0
  2 28  1  0  0  0  0
  2 29  1  0  0  0  0
  3  4  1  0  0  0  0
  3  5  1  0  0  0  0
  3 30  1  1  0  0  0
  4 31  1  0  0  0  0
  4 32  1  0  0  0  0
  4 33  1  0  0  0  0
  5  6  1  0  0  0  0
  5 34  1  0  0  0  0
  6  7  1  0  0  0  0
  6 35  1  0  0  0  0
  6 36  1  0  0  0  0
  7  8  1  0  0  0  0
  7  9  1  0  0  0  0
  7 37  1  6  0  0  0
  8 38  1  0  0  0  0
  9 10  1  0  0  0  0
  9 39  1  0  0  0  0
  9 40  1  0  0  0  0
 10 11  1  0  0  0  0
 10 24  1  0  0  0  0
 11 12  2  0  0  0  0
 11 17  1  0  0  0  0
 12 13  1  0  0  0  0
 12 41  1  0  0  0  0
 13 14  2  0  0  0  0
 13 42  1  0  0  0  0
 14 15  1  0  0  0  0
 14 16  1  0  0  0  0
 16 17  2  0  0  0  0
 16 43  1  0  0  0  0
 17 18  1  0  0  0  0
 18 19  2  0  0  0  0
 18 24  1  0  0  0  0
 19 20  1  0  0  0  0
 19 44  1  0  0  0  0
 20 21  1  0  0  0  0
 20 22  2  0  0  0  0
 22 23  1  0  0  0  0
 22 45  1  0  0  0  0
 23 24  2  0  0  0  0
 23 46  1  0  0  0  0
M  END
$$$$
