2D_structures\o77_MMV1578564_2D.pdb
 OpenBabel02272422463D

 34 35  0  0  0  0  0  0  0  0999 V2000
   -6.2360   -1.3360    0.0000 C   0  0  0  0  0  0  0  0  0  0  0  0
   -4.8830   -0.6890    0.0000 C   0  0  0  0  0  0  0  0  0  0  0  0
   -3.5290   -0.0430    0.0000 C   0  0  0  0  0  0  0  0  0  0  0  0
   -3.4120    1.4530    0.0000 C   0  0  0  0  0  0  0  0  0  0  0  0
   -2.0580    2.0990    0.0000 C   0  0  0  0  0  0  0  0  0  0  0  0
   -1.9410    3.5940    0.0000 O   0  0  0  0  0  0  0  0  0  0  0  0
   -0.8220    1.2500    0.0000 C   0  0  0  0  0  0  0  0  0  0  0  0
    0.5320    1.8960    0.0000 O   0  0  0  0  0  0  0  0  0  0  0  0
    1.7680    1.0470    0.0000 C   0  0  0  0  0  0  0  0  0  0  0  0
    1.6510   -0.4480    0.0000 C   0  0  0  0  0  0  0  0  0  0  0  0
    2.8880   -1.2970    0.0000 C   0  0  0  0  0  0  0  0  0  0  0  0
    4.2410   -0.6510    0.0000 C   0  0  0  0  0  0  0  0  0  0  0  0
    4.3580    0.8440    0.0000 C   0  0  0  0  0  0  0  0  0  0  0  0
    3.1220    1.6930    0.0000 C   0  0  0  0  0  0  0  0  0  0  0  0
    3.2390    3.1890    0.0000 F   0  0  0  0  0  0  0  0  0  0  0  0
    5.4780   -1.5000    0.0000 C   0  0  0  0  0  0  0  0  0  0  0  0
    5.3610   -2.9960    0.0000 O   0  0  0  0  0  0  0  0  0  0  0  0
    6.8310   -0.8540    0.0000 N   0  0  0  0  0  0  0  0  0  0  0  0
   -0.9390   -0.2460    0.0000 C   0  0  0  0  0  0  0  0  0  0  0  0
   -2.2930   -0.8920    0.0000 C   0  0  0  0  0  0  0  0  0  0  0  0
   -2.4100   -2.3870    0.0000 F   0  0  0  0  0  0  0  0  0  0  0  0
   -7.5900   -1.9820    0.0000 H   0  0  0  0  0  0  0  0  0  0  0  0
   -5.5900   -2.6890    0.0000 H   0  0  0  0  0  0  0  0  0  0  0  0
   -6.8830    0.0180    0.0000 H   0  0  0  0  0  0  0  0  0  0  0  0
   -5.5290    0.6640    0.0000 H   0  0  0  0  0  0  0  0  0  0  0  0
   -4.2360   -2.0430    0.0000 H   0  0  0  0  0  0  0  0  0  0  0  0
   -4.6490    2.3020    0.0000 H   0  0  0  0  0  0  0  0  0  0  0  0
   -0.5880    4.2410    0.0000 H   0  0  0  0  0  0  0  0  0  0  0  0
    0.8210   -0.9770    0.0000 H   0  0  0  0  0  0  0  0  0  0  0  0
    2.7710   -2.7930    0.0000 H   0  0  0  0  0  0  0  0  0  0  0  0
    5.7120    1.4910    0.0000 H   0  0  0  0  0  0  0  0  0  0  0  0
    8.0680   -1.7030    0.0000 H   0  0  0  0  0  0  0  0  0  0  0  0
    6.9490    0.6420    0.0000 H   0  0  0  0  0  0  0  0  0  0  0  0
   -0.2020   -0.8970    0.0000 H   0  0  0  0  0  0  0  0  0  0  0  0
  1  2  1  0  0  0  0
  1 22  1  0  0  0  0
  1 23  1  0  0  0  0
  1 24  1  0  0  0  0
  2  3  1  0  0  0  0
  2 25  1  0  0  0  0
  2 26  1  0  0  0  0
  3  4  2  0  0  0  0
  3 20  1  0  0  0  0
  4  5  1  0  0  0  0
  4 27  1  0  0  0  0
  5  6  1  0  0  0  0
  5  7  2  0  0  0  0
  6 28  1  0  0  0  0
  7  8  1  0  0  0  0
  7 19  1  0  0  0  0
  8  9  1  0  0  0  0
  9 10  2  0  0  0  0
  9 14  1  0  0  0  0
 10 11  1  0  0  0  0
 10 29  1  0  0  0  0
 11 12  2  0  0  0  0
 11 30  1  0  0  0  0
 12 13  1  0  0  0  0
 12 16  1  0  0  0  0
 13 14  2  0  0  0  0
 13 31  1  0  0  0  0
 14 15  1  0  0  0  0
 16 17  2  0  0  0  0
 16 18  1  0  0  0  0
 18 32  1  0  0  0  0
 18 33  1  0  0  0  0
 19 20  2  0  0  0  0
 19 34  1  0  0  0  0
 20 21  1  0  0  0  0
M  END
$$$$
