2D_structures\o78_MMV1782215_2D.pdb
 OpenBabel02272422463D

 44 45  0  0  1  0  0  0  0  0999 V2000
   -6.3980    0.7600    0.0000 O   0  0  0  0  0  0  0  0  0  0  0  0
   -5.8460   -0.6350    0.0000 P   0  0  0  0  0  0  0  0  0  0  0  0
   -7.2400   -1.1870    0.0000 O   0  0  0  0  0  0  0  0  0  0  0  0
   -5.2940   -2.0290    0.0000 O   0  0  0  0  0  0  0  0  0  0  0  0
   -4.4510   -0.0830    0.0000 C   0  0  1  0  0  0  0  0  0  0  0  0
   -3.0560    0.4690    0.0000 C   0  0  0  0  0  0  0  0  0  0  0  0
   -1.6620    1.0220    0.0000 C   0  0  0  0  0  0  0  0  0  0  0  0
   -0.2670    1.5740    0.0000 C   0  0  0  0  0  0  0  0  0  0  0  0
    1.1280    2.1260    0.0000 C   0  0  0  0  0  0  0  0  0  0  0  0
    1.3470    3.6100    0.0000 C   0  0  0  0  0  0  0  0  0  0  0  0
    2.7420    4.1620    0.0000 C   0  0  0  0  0  0  0  0  0  0  0  0
    3.9170    3.2300    0.0000 C   0  0  0  0  0  0  0  0  0  0  0  0
    3.6980    1.7460    0.0000 C   0  0  0  0  0  0  0  0  0  0  0  0
    4.8730    0.8140    0.0000 O   0  0  0  0  0  0  0  0  0  0  0  0
    4.6540   -0.6700    0.0000 C   0  0  0  0  0  0  0  0  0  0  0  0
    3.2590   -1.2220    0.0000 C   0  0  0  0  0  0  0  0  0  0  0  0
    3.0400   -2.7060    0.0000 C   0  0  0  0  0  0  0  0  0  0  0  0
    4.2160   -3.6370    0.0000 C   0  0  0  0  0  0  0  0  0  0  0  0
    5.6100   -3.0850    0.0000 C   0  0  0  0  0  0  0  0  0  0  0  0
    5.8300   -1.6020    0.0000 C   0  0  0  0  0  0  0  0  0  0  0  0
    2.3030    1.1940    0.0000 C   0  0  0  0  0  0  0  0  0  0  0  0
   -3.8990   -1.4770    0.0000 S   0  0  0  0  0  0  0  0  0  0  0  0
   -3.3470   -2.8720    0.0000 O   0  0  0  0  0  0  0  0  0  0  0  0
   -4.5470   -1.9410    0.0000 O   0  0  0  0  0  0  0  0  0  0  0  0
   -2.5040   -0.9250    0.0000 O   0  0  0  0  0  0  0  0  0  0  0  0
   -7.8820    0.9790    0.0000 H   0  0  0  0  0  0  0  0  0  0  0  0
   -6.2250   -3.2050    0.0000 H   0  0  0  0  0  0  0  0  0  0  0  0
   -5.0030    1.3120    0.0000 H   0  0  0  0  0  0  0  0  0  0  0  0
   -2.1830   -0.7500    0.0000 H   0  0  0  0  0  0  0  0  0  0  0  0
   -3.6080    1.8640    0.0000 H   0  0  0  0  0  0  0  0  0  0  0  0
   -2.2140    2.4160    0.0000 H   0  0  0  0  0  0  0  0  0  0  0  0
   -1.1100   -0.3730    0.0000 H   0  0  0  0  0  0  0  0  0  0  0  0
   -0.8190    2.9680    0.0000 H   0  0  0  0  0  0  0  0  0  0  0  0
    0.2850    0.1790    0.0000 H   0  0  0  0  0  0  0  0  0  0  0  0
    0.1720    4.5410    0.0000 H   0  0  0  0  0  0  0  0  0  0  0  0
    2.9610    5.6460    0.0000 H   0  0  0  0  0  0  0  0  0  0  0  0
    5.3120    3.7820    0.0000 H   0  0  0  0  0  0  0  0  0  0  0  0
    1.9790   -0.4400    0.0000 H   0  0  0  0  0  0  0  0  0  0  0  0
    1.6460   -3.2580    0.0000 H   0  0  0  0  0  0  0  0  0  0  0  0
    3.9960   -5.1210    0.0000 H   0  0  0  0  0  0  0  0  0  0  0  0
    6.7860   -4.0170    0.0000 H   0  0  0  0  0  0  0  0  0  0  0  0
    7.2240   -1.0490    0.0000 H   0  0  0  0  0  0  0  0  0  0  0  0
    1.9050   -0.2520    0.0000 H   0  0  0  0  0  0  0  0  0  0  0  0
   -1.3290   -1.8570    0.0000 H   0  0  0  0  0  0  0  0  0  0  0  0
  1  2  1  0  0  0  0
  1 26  1  0  0  0  0
  2  3  2  0  0  0  0
  2  4  1  0  0  0  0
  2  5  1  0  0  0  0
  4 27  1  0  0  0  0
  5  6  1  0  0  0  0
  5 22  1  0  0  0  0
  5 28  1  6  0  0  0
  6  7  1  0  0  0  0
  6 29  1  0  0  0  0
  6 30  1  0  0  0  0
  7  8  1  0  0  0  0
  7 31  1  0  0  0  0
  7 32  1  0  0  0  0
  8  9  1  0  0  0  0
  8 33  1  0  0  0  0
  8 34  1  0  0  0  0
  9 10  2  0  0  0  0
  9 21  1  0  0  0  0
 10 11  1  0  0  0  0
 10 35  1  0  0  0  0
 11 12  2  0  0  0  0
 11 36  1  0  0  0  0
 12 13  1  0  0  0  0
 12 37  1  0  0  0  0
 13 14  1  0  0  0  0
 13 21  2  0  0  0  0
 14 15  1  0  0  0  0
 15 16  2  0  0  0  0
 15 20  1  0  0  0  0
 16 17  1  0  0  0  0
 16 38  1  0  0  0  0
 17 18  2  0  0  0  0
 17 39  1  0  0  0  0
 18 19  1  0  0  0  0
 18 40  1  0  0  0  0
 19 20  2  0  0  0  0
 19 41  1  0  0  0  0
 20 42  1  0  0  0  0
 21 43  1  0  0  0  0
 22 23  2  0  0  0  0
 22 24  2  0  0  0  0
 22 25  1  0  0  0  0
 25 44  1  0  0  0  0
M  END
$$$$
