2D_structures\o7_MMV1613562_2D.pdb
 OpenBabel02272422463D

 37 38  0  0  1  0  0  0  0  0999 V2000
   -3.6730   -2.7210    0.0000 C   0  0  0  0  0  0  0  0  0  0  0  0
   -4.1550   -1.3010    0.0000 C   0  0  0  0  0  0  0  0  0  0  0  0
   -5.5880   -0.8560    0.0000 N   0  0  0  0  0  0  0  0  0  0  0  0
   -5.6070    0.6440    0.0000 C   0  0  0  0  0  0  0  0  0  0  0  0
   -4.1870    1.1260    0.0000 C   0  0  0  0  0  0  0  0  0  0  0  0
   -3.2890   -0.0760    0.0000 N   0  0  0  0  0  0  0  0  0  0  0  0
   -1.7890   -0.0560    0.0000 C   0  0  0  0  0  0  0  0  0  0  0  0
   -0.2890   -0.0370    0.0000 C   0  0  1  0  0  0  0  0  0  0  0  0
   -0.3090    1.4630    0.0000 O   0  0  0  0  0  0  0  0  0  0  0  0
    1.2100   -0.0170    0.0000 C   0  0  0  0  0  0  0  0  0  0  0  0
    2.7100    0.0020    0.0000 N   0  0  0  0  0  0  0  0  0  0  0  0
    3.4770   -1.2870    0.0000 C   0  0  0  0  0  0  0  0  0  0  0  0
    4.9770   -1.2670    0.0000 C   0  0  0  0  0  0  0  0  0  0  0  0
    5.7100    0.0410    0.0000 O   0  0  0  0  0  0  0  0  0  0  0  0
    4.9430    1.3310    0.0000 C   0  0  0  0  0  0  0  0  0  0  0  0
    3.4430    1.3110    0.0000 C   0  0  0  0  0  0  0  0  0  0  0  0
   -3.7420    2.5590    0.0000 N   0  3  0  0  0  0  0  0  0  0  0  0
   -4.7600    3.6600    0.0000 O   0  5  0  0  0  0  0  0  0  0  0  0
   -2.2790    2.8900    0.0000 O   0  0  0  0  0  0  0  0  0  0  0  0
   -3.1910   -4.1410    0.0000 H   0  0  0  0  0  0  0  0  0  0  0  0
   -5.0930   -3.2030    0.0000 H   0  0  0  0  0  0  0  0  0  0  0  0
   -2.2040   -2.4160    0.0000 H   0  0  0  0  0  0  0  0  0  0  0  0
   -6.8320    1.5100    0.0000 H   0  0  0  0  0  0  0  0  0  0  0  0
   -1.9920    1.4300    0.0000 H   0  0  0  0  0  0  0  0  0  0  0  0
   -1.5870   -1.5420    0.0000 H   0  0  0  0  0  0  0  0  0  0  0  0
   -0.2700   -1.5370    0.0000 H   0  0  0  0  0  0  0  0  0  0  0  0
   -1.5190    2.3500    0.0000 H   0  0  0  0  0  0  0  0  0  0  0  0
    1.0470   -1.5080    0.0000 H   0  0  0  0  0  0  0  0  0  0  0  0
    1.0080    1.4690    0.0000 H   0  0  0  0  0  0  0  0  0  0  0  0
    3.7570   -2.7610    0.0000 H   0  0  0  0  0  0  0  0  0  0  0  0
    2.1500   -1.9850    0.0000 H   0  0  0  0  0  0  0  0  0  0  0  0
    6.3930   -1.7620    0.0000 H   0  0  0  0  0  0  0  0  0  0  0  0
    4.7360   -2.7480    0.0000 H   0  0  0  0  0  0  0  0  0  0  0  0
    4.6640    2.8040    0.0000 H   0  0  0  0  0  0  0  0  0  0  0  0
    6.3460    1.8620    0.0000 H   0  0  0  0  0  0  0  0  0  0  0  0
    2.0980    1.9750    0.0000 H   0  0  0  0  0  0  0  0  0  0  0  0
    3.6850    2.7910    0.0000 H   0  0  0  0  0  0  0  0  0  0  0  0
  1  2  1  0  0  0  0
  1 20  1  0  0  0  0
  1 21  1  0  0  0  0
  1 22  1  0  0  0  0
  2  3  2  0  0  0  0
  2  6  1  0  0  0  0
  3  4  1  0  0  0  0
  4  5  2  0  0  0  0
  4 23  1  0  0  0  0
  5  6  1  0  0  0  0
  5 17  1  0  0  0  0
  6  7  1  0  0  0  0
  7  8  1  0  0  0  0
  7 24  1  0  0  0  0
  7 25  1  0  0  0  0
  8  9  1  0  0  0  0
  8 10  1  0  0  0  0
  8 26  1  6  0  0  0
  9 27  1  0  0  0  0
 10 11  1  0  0  0  0
 10 28  1  0  0  0  0
 10 29  1  0  0  0  0
 11 12  1  0  0  0  0
 11 16  1  0  0  0  0
 12 13  1  0  0  0  0
 12 30  1  0  0  0  0
 12 31  1  0  0  0  0
 13 14  1  0  0  0  0
 13 32  1  0  0  0  0
 13 33  1  0  0  0  0
 14 15  1  0  0  0  0
 15 16  1  0  0  0  0
 15 34  1  0  0  0  0
 15 35  1  0  0  0  0
 16 36  1  0  0  0  0
 16 37  1  0  0  0  0
 17 18  1  0  0  0  0
 17 19  2  0  0  0  0
M  CHG  2  17   1  18  -1
M  END
$$$$
