2D_structures\o9_MMV1593532_2D.pdb
 OpenBabel02272422463D

 47 50  0  0  0  0  0  0  0  0999 V2000
   -3.1780    1.0620    0.0000 O   0  0  0  0  0  0  0  0  0  0  0  0
   -3.4500    0.1160    0.0000 C   0  0  0  0  0  0  0  0  0  0  0  0
   -2.2850   -0.8290    0.0000 N   0  0  0  0  0  0  0  0  0  0  0  0
   -0.8840   -0.2930    0.0000 C   0  0  0  0  0  0  0  0  0  0  0  0
   -0.4950    1.1560    0.0000 N   0  0  0  0  0  0  0  0  0  0  0  0
    1.0030    1.2330    0.0000 C   0  0  0  0  0  0  0  0  0  0  0  0
    1.5400   -0.1680    0.0000 C   0  0  0  0  0  0  0  0  0  0  0  0
    2.9880   -0.5570    0.0000 C   0  0  0  0  0  0  0  0  0  0  0  0
    4.4370   -0.9470    0.0000 C   0  0  0  0  0  0  0  0  0  0  0  0
    4.8240   -2.3960    0.0000 C   0  0  0  0  0  0  0  0  0  0  0  0
    6.2720   -2.7850    0.0000 C   0  0  0  0  0  0  0  0  0  0  0  0
    7.3340   -1.7250    0.0000 C   0  0  0  0  0  0  0  0  0  0  0  0
    6.9470   -0.2760    0.0000 C   0  0  0  0  0  0  0  0  0  0  0  0
    8.0080    0.7840    0.0000 C   0  0  0  0  0  0  0  0  0  0  0  0
    7.6210    2.2330    0.0000 C   0  0  0  0  0  0  0  0  0  0  0  0
    6.1730    2.6220    0.0000 C   0  0  0  0  0  0  0  0  0  0  0  0
    5.1110    1.5620    0.0000 C   0  0  0  0  0  0  0  0  0  0  0  0
    5.4980    0.1130    0.0000 C   0  0  0  0  0  0  0  0  0  0  0  0
    0.3730   -1.1110    0.0000 S   0  0  0  0  0  0  0  0  0  0  0  0
   -4.8510   -0.4210    0.0000 C   0  0  0  0  0  0  0  0  0  0  0  0
   -5.1360    1.0520    0.0000 C   0  0  0  0  0  0  0  0  0  0  0  0
   -6.5540    1.5420    0.0000 C   0  0  0  0  0  0  0  0  0  0  0  0
   -7.6860    0.5580    0.0000 C   0  0  0  0  0  0  0  0  0  0  0  0
   -7.4010   -0.9140    0.0000 C   0  0  0  0  0  0  0  0  0  0  0  0
   -5.9840   -1.4040    0.0000 C   0  0  0  0  0  0  0  0  0  0  0  0
   -2.5210   -2.3110    0.0000 H   0  0  0  0  0  0  0  0  0  0  0  0
    1.8210    2.4900    0.0000 H   0  0  0  0  0  0  0  0  0  0  0  0
    3.3780    0.8910    0.0000 H   0  0  0  0  0  0  0  0  0  0  0  0
    2.5990   -2.0060    0.0000 H   0  0  0  0  0  0  0  0  0  0  0  0
    3.7620   -3.4560    0.0000 H   0  0  0  0  0  0  0  0  0  0  0  0
    6.6590   -4.2340    0.0000 H   0  0  0  0  0  0  0  0  0  0  0  0
    8.7830   -2.1150    0.0000 H   0  0  0  0  0  0  0  0  0  0  0  0
    9.4570    0.3940    0.0000 H   0  0  0  0  0  0  0  0  0  0  0  0
    8.6830    3.2930    0.0000 H   0  0  0  0  0  0  0  0  0  0  0  0
    5.7860    4.0710    0.0000 H   0  0  0  0  0  0  0  0  0  0  0  0
    3.6630    1.9520    0.0000 H   0  0  0  0  0  0  0  0  0  0  0  0
   -4.0790   -1.7070    0.0000 H   0  0  0  0  0  0  0  0  0  0  0  0
   -4.9000    2.5330    0.0000 H   0  0  0  0  0  0  0  0  0  0  0  0
   -4.1610    1.1880    0.0000 H   0  0  0  0  0  0  0  0  0  0  0  0
   -7.7190    2.4870    0.0000 H   0  0  0  0  0  0  0  0  0  0  0  0
   -5.8250    2.8530    0.0000 H   0  0  0  0  0  0  0  0  0  0  0  0
   -9.0870    0.0220    0.0000 H   0  0  0  0  0  0  0  0  0  0  0  0
   -8.4580    1.8450    0.0000 H   0  0  0  0  0  0  0  0  0  0  0  0
   -7.6370   -2.3960    0.0000 H   0  0  0  0  0  0  0  0  0  0  0  0
   -8.9010   -0.9390    0.0000 H   0  0  0  0  0  0  0  0  0  0  0  0
   -4.8190   -2.3490    0.0000 H   0  0  0  0  0  0  0  0  0  0  0  0
   -6.7120   -2.7150    0.0000 H   0  0  0  0  0  0  0  0  0  0  0  0
  1  2  2  0  0  0  0
  2  3  1  0  0  0  0
  2 20  1  0  0  0  0
  3  4  1  0  0  0  0
  3 26  1  0  0  0  0
  4  5  2  0  0  0  0
  4 19  1  0  0  0  0
  5  6  1  0  0  0  0
  6  7  2  0  0  0  0
  6 27  1  0  0  0  0
  7  8  1  0  0  0  0
  7 19  1  0  0  0  0
  8  9  1  0  0  0  0
  8 28  1  0  0  0  0
  8 29  1  0  0  0  0
  9 10  2  0  0  0  0
  9 18  1  0  0  0  0
 10 11  1  0  0  0  0
 10 30  1  0  0  0  0
 11 12  2  0  0  0  0
 11 31  1  0  0  0  0
 12 13  1  0  0  0  0
 12 32  1  0  0  0  0
 13 14  2  0  0  0  0
 13 18  1  0  0  0  0
 14 15  1  0  0  0  0
 14 33  1  0  0  0  0
 15 16  2  0  0  0  0
 15 34  1  0  0  0  0
 16 17  1  0  0  0  0
 16 35  1  0  0  0  0
 17 18  2  0  0  0  0
 17 36  1  0  0  0  0
 20 21  1  0  0  0  0
 20 25  1  0  0  0  0
 20 37  1  0  0  0  0
 21 22  1  0  0  0  0
 21 38  1  0  0  0  0
 21 39  1  0  0  0  0
 22 23  1  0  0  0  0
 22 40  1  0  0  0  0
 22 41  1  0  0  0  0
 23 24  1  0  0  0  0
 23 42  1  0  0  0  0
 23 43  1  0  0  0  0
 24 25  1  0  0  0  0
 24 44  1  0  0  0  0
 24 45  1  0  0  0  0
 25 46  1  0  0  0  0
 25 47  1  0  0  0  0
M  END
$$$$
