2D_structures\o11_MMV1581034_2D.pdb
 OpenBabel02282413353D

 50 52  0  0  1  0  0  0  0  0999 V2000
   -2.7720   -2.8620    0.0000 Cl  0  0  0  0  0  0  0  0  0  0  0  0
   -1.6190   -1.9020    0.0000 C   0  0  0  0  0  0  0  0  0  0  0  0
   -1.8740   -0.4240    0.0000 C   0  0  0  0  0  0  0  0  0  0  0  0
   -3.2820    0.0940    0.0000 S   0  0  0  0  0  0  0  0  0  0  0  0
   -2.7640    1.5020    0.0000 O   0  0  0  0  0  0  0  0  0  0  0  0
   -3.4640   -0.6820    0.0000 O   0  0  0  0  0  0  0  0  0  0  0  0
   -4.6900    0.6130    0.0000 C   0  0  1  0  0  0  0  0  0  0  0  0
   -4.9560   -0.8630    0.0000 C   0  0  0  0  0  0  0  0  0  0  0  0
   -6.3670   -1.3710    0.0000 N   0  0  0  0  0  0  0  0  0  0  0  0
   -7.5120   -0.4030    0.0000 C   0  0  0  0  0  0  0  0  0  0  0  0
   -7.2460    1.0740    0.0000 C   0  0  0  0  0  0  0  0  0  0  0  0
   -5.8350    1.5810    0.0000 C   0  0  0  0  0  0  0  0  0  0  0  0
   -0.7220    0.5360    0.0000 C   0  0  0  0  0  0  0  0  0  0  0  0
    0.6860    0.0180    0.0000 C   0  0  0  0  0  0  0  0  0  0  0  0
    1.8390    0.9770    0.0000 N   0  0  0  0  0  0  0  0  0  0  0  0
    3.2460    0.4590    0.0000 C   0  0  0  0  0  0  0  0  0  0  0  0
    3.3190   -1.0390    0.0000 O   0  0  0  0  0  0  0  0  0  0  0  0
    4.3990    1.4190    0.0000 N   0  0  0  0  0  0  0  0  0  0  0  0
    5.8060    0.9010    0.0000 C   0  0  0  0  0  0  0  0  0  0  0  0
    6.0610   -0.5780    0.0000 C   0  0  0  0  0  0  0  0  0  0  0  0
    7.4690   -1.0960    0.0000 C   0  0  0  0  0  0  0  0  0  0  0  0
    8.6220   -0.1360    0.0000 C   0  0  0  0  0  0  0  0  0  0  0  0
    8.3670    1.3420    0.0000 C   0  0  0  0  0  0  0  0  0  0  0  0
    6.9590    1.8610    0.0000 C   0  0  0  0  0  0  0  0  0  0  0  0
    7.7240   -2.5740    0.0000 F   0  0  0  0  0  0  0  0  0  0  0  0
    4.9090   -1.5370    0.0000 C   0  0  0  0  0  0  0  0  0  0  0  0
    0.9410   -1.4610    0.0000 C   0  0  0  0  0  0  0  0  0  0  0  0
   -0.2120   -2.4200    0.0000 C   0  0  0  0  0  0  0  0  0  0  0  0
   -0.9770    2.0140    0.0000 O   0  0  0  0  0  0  0  0  0  0  0  0
   -3.9350    1.9090    0.0000 H   0  0  0  0  0  0  0  0  0  0  0  0
   -4.7010   -2.3420    0.0000 H   0  0  0  0  0  0  0  0  0  0  0  0
   -4.0770   -0.9750    0.0000 H   0  0  0  0  0  0  0  0  0  0  0  0
   -6.6330   -2.8470    0.0000 H   0  0  0  0  0  0  0  0  0  0  0  0
   -8.9200    0.1160    0.0000 H   0  0  0  0  0  0  0  0  0  0  0  0
   -8.2670   -1.6990    0.0000 H   0  0  0  0  0  0  0  0  0  0  0  0
   -7.5010    2.5520    0.0000 H   0  0  0  0  0  0  0  0  0  0  0  0
   -8.7460    1.0790    0.0000 H   0  0  0  0  0  0  0  0  0  0  0  0
   -4.6820    2.5410    0.0000 H   0  0  0  0  0  0  0  0  0  0  0  0
   -6.5800    2.8830    0.0000 H   0  0  0  0  0  0  0  0  0  0  0  0
    1.5840    2.4560    0.0000 H   0  0  0  0  0  0  0  0  0  0  0  0
    4.1440    2.8970    0.0000 H   0  0  0  0  0  0  0  0  0  0  0  0
   10.0290   -0.6540    0.0000 H   0  0  0  0  0  0  0  0  0  0  0  0
    9.5190    2.3020    0.0000 H   0  0  0  0  0  0  0  0  0  0  0  0
    6.7040    3.3390    0.0000 H   0  0  0  0  0  0  0  0  0  0  0  0
    3.7560   -2.4970    0.0000 H   0  0  0  0  0  0  0  0  0  0  0  0
    5.8690   -2.6900    0.0000 H   0  0  0  0  0  0  0  0  0  0  0  0
    3.8160   -0.5100    0.0000 H   0  0  0  0  0  0  0  0  0  0  0  0
    2.3480   -1.9790    0.0000 H   0  0  0  0  0  0  0  0  0  0  0  0
    0.0430   -3.8990    0.0000 H   0  0  0  0  0  0  0  0  0  0  0  0
    0.1760    2.9740    0.0000 H   0  0  0  0  0  0  0  0  0  0  0  0
  1  2  1  0  0  0  0
  2  3  2  0  0  0  0
  2 28  1  0  0  0  0
  3  4  1  0  0  0  0
  3 13  1  0  0  0  0
  4  5  2  0  0  0  0
  4  6  2  0  0  0  0
  4  7  1  0  0  0  0
  7  8  1  0  0  0  0
  7 12  1  0  0  0  0
  7 30  1  6  0  0  0
  8  9  1  0  0  0  0
  8 31  1  0  0  0  0
  8 32  1  0  0  0  0
  9 10  1  0  0  0  0
  9 33  1  0  0  0  0
 10 11  1  0  0  0  0
 10 34  1  0  0  0  0
 10 35  1  0  0  0  0
 11 12  1  0  0  0  0
 11 36  1  0  0  0  0
 11 37  1  0  0  0  0
 12 38  1  0  0  0  0
 12 39  1  0  0  0  0
 13 14  2  0  0  0  0
 13 29  1  0  0  0  0
 14 15  1  0  0  0  0
 14 27  1  0  0  0  0
 15 16  1  0  0  0  0
 15 40  1  0  0  0  0
 16 17  2  0  0  0  0
 16 18  1  0  0  0  0
 18 19  1  0  0  0  0
 18 41  1  0  0  0  0
 19 20  2  0  0  0  0
 19 24  1  0  0  0  0
 20 21  1  0  0  0  0
 20 26  1  0  0  0  0
 21 22  2  0  0  0  0
 21 25  1  0  0  0  0
 22 23  1  0  0  0  0
 22 42  1  0  0  0  0
 23 24  2  0  0  0  0
 23 43  1  0  0  0  0
 24 44  1  0  0  0  0
 26 45  1  0  0  0  0
 26 46  1  0  0  0  0
 26 47  1  0  0  0  0
 27 28  2  0  0  0  0
 27 48  1  0  0  0  0
 28 49  1  0  0  0  0
 29 50  1  0  0  0  0
M  END
$$$$
