2D_structures\o14_MMV1580796_2D.pdb
 OpenBabel02282413353D

 44 48  0  0  1  0  0  0  0  0999 V2000
   -8.2460    0.8660    0.0000 O   0  5  0  0  0  0  0  0  0  0  0  0
   -6.7510    0.9820    0.0000 N   0  3  0  0  0  0  0  0  0  0  0  0
   -6.1030    2.3350    0.0000 O   0  0  0  0  0  0  0  0  0  0  0  0
   -5.9030   -0.2560    0.0000 C   0  0  0  0  0  0  0  0  0  0  0  0
   -6.5510   -1.6090    0.0000 C   0  0  0  0  0  0  0  0  0  0  0  0
   -5.7030   -2.8460    0.0000 C   0  0  0  0  0  0  0  0  0  0  0  0
   -4.2080   -2.7310    0.0000 C   0  0  0  0  0  0  0  0  0  0  0  0
   -3.5600   -1.3780    0.0000 C   0  0  0  0  0  0  0  0  0  0  0  0
   -2.0640   -1.2630    0.0000 N   0  0  0  0  0  0  0  0  0  0  0  0
   -1.4160    0.0900    0.0000 C   0  0  0  0  0  0  0  0  0  0  0  0
   -2.2640    1.3280    0.0000 C   0  0  0  0  0  0  0  0  0  0  0  0
   -3.7590    1.2120    0.0000 C   0  0  0  0  0  0  0  0  0  0  0  0
   -4.4070   -0.1410    0.0000 C   0  0  0  0  0  0  0  0  0  0  0  0
   -1.3490    2.5160    0.0000 C   0  0  0  0  0  0  0  0  0  0  0  0
    0.0640    2.0130    0.0000 N   0  0  0  0  0  0  0  0  0  0  0  0
    1.3840    2.7270    0.0000 C   0  0  0  0  0  0  0  0  0  0  0  0
    1.4250    4.2260    0.0000 O   0  0  0  0  0  0  0  0  0  0  0  0
    2.6610    1.9410    0.0000 C   0  0  0  0  0  0  0  0  0  0  0  0
    2.6200    0.4420    0.0000 C   0  0  0  0  0  0  0  0  0  0  0  0
    1.3000   -0.2720    0.0000 C   0  0  0  0  0  0  0  0  0  0  0  0
    0.0230    0.5140    0.0000 C   0  0  0  0  0  0  0  0  0  0  0  0
    3.8970   -0.3440    0.0000 C   0  0  1  0  0  0  0  0  0  0  0  0
    2.9020   -1.4660    0.0000 O   0  0  0  0  0  0  0  0  0  0  0  0
    5.2170    0.3700    0.0000 C   0  0  0  0  0  0  0  0  0  0  0  0
    6.2110   -0.0850    0.0000 O   0  0  0  0  0  0  0  0  0  0  0  0
    5.2580    1.8690    0.0000 O   0  0  0  0  0  0  0  0  0  0  0  0
    3.9810    2.6550    0.0000 C   0  0  0  0  0  0  0  0  0  0  0  0
    4.8290   -1.5190    0.0000 C   0  0  0  0  0  0  0  0  0  0  0  0
    5.7610   -2.6950    0.0000 C   0  0  0  0  0  0  0  0  0  0  0  0
   -8.0460   -1.7240    0.0000 H   0  0  0  0  0  0  0  0  0  0  0  0
   -6.3510   -4.1990    0.0000 H   0  0  0  0  0  0  0  0  0  0  0  0
   -3.3600   -3.9680    0.0000 H   0  0  0  0  0  0  0  0  0  0  0  0
   -4.6070    2.4500    0.0000 H   0  0  0  0  0  0  0  0  0  0  0  0
   -2.6270    3.3020    0.0000 H   0  0  0  0  0  0  0  0  0  0  0  0
   -0.7010    3.8690    0.0000 H   0  0  0  0  0  0  0  0  0  0  0  0
    1.2590   -1.7710    0.0000 H   0  0  0  0  0  0  0  0  0  0  0  0
    3.1180   -2.5380    0.0000 H   0  0  0  0  0  0  0  0  0  0  0  0
    3.0490    3.8300    0.0000 H   0  0  0  0  0  0  0  0  0  0  0  0
    4.9760    3.7770    0.0000 H   0  0  0  0  0  0  0  0  0  0  0  0
    5.7630   -0.9500    0.0000 H   0  0  0  0  0  0  0  0  0  0  0  0
    4.0620   -2.2980    0.0000 H   0  0  0  0  0  0  0  0  0  0  0  0
    6.6930   -3.8700    0.0000 H   0  0  0  0  0  0  0  0  0  0  0  0
    6.9370   -1.7630    0.0000 H   0  0  0  0  0  0  0  0  0  0  0  0
    4.5860   -3.6270    0.0000 H   0  0  0  0  0  0  0  0  0  0  0  0
  1  2  1  0  0  0  0
  2  3  2  0  0  0  0
  2  4  1  0  0  0  0
  4  5  2  0  0  0  0
  4 13  1  0  0  0  0
  5  6  1  0  0  0  0
  5 30  1  0  0  0  0
  6  7  2  0  0  0  0
  6 31  1  0  0  0  0
  7  8  1  0  0  0  0
  7 32  1  0  0  0  0
  8  9  2  0  0  0  0
  8 13  1  0  0  0  0
  9 10  1  0  0  0  0
 10 11  2  0  0  0  0
 10 21  1  0  0  0  0
 11 12  1  0  0  0  0
 11 14  1  0  0  0  0
 12 13  2  0  0  0  0
 12 33  1  0  0  0  0
 14 15  1  0  0  0  0
 14 34  1  0  0  0  0
 14 35  1  0  0  0  0
 15 16  1  0  0  0  0
 15 21  1  0  0  0  0
 16 17  2  0  0  0  0
 16 18  1  0  0  0  0
 18 19  2  0  0  0  0
 18 27  1  0  0  0  0
 19 20  1  0  0  0  0
 19 22  1  0  0  0  0
 20 21  2  0  0  0  0
 20 36  1  0  0  0  0
 22 23  1  6  0  0  0
 22 24  1  0  0  0  0
 22 28  1  0  0  0  0
 23 37  1  0  0  0  0
 24 25  2  0  0  0  0
 24 26  1  0  0  0  0
 26 27  1  0  0  0  0
 27 38  1  0  0  0  0
 27 39  1  0  0  0  0
 28 29  1  0  0  0  0
 28 40  1  0  0  0  0
 28 41  1  0  0  0  0
 29 42  1  0  0  0  0
 29 43  1  0  0  0  0
 29 44  1  0  0  0  0
M  CHG  2   1  -1   2   1
M  END
$$$$
