2D_structures\o21_MMV218827_2D.pdb
 OpenBabel02282413353D

 46 49  0  0  0  0  0  0  0  0999 V2000
   -0.8840    0.9440    0.0000 S   0  0  0  0  0  0  0  0  0  0  0  0
   -0.2020   -0.3920    0.0000 O   0  0  0  0  0  0  0  0  0  0  0  0
   -1.5660    2.2800    0.0000 O   0  0  0  0  0  0  0  0  0  0  0  0
    0.4520    1.6260    0.0000 N   0  0  0  0  0  0  0  0  0  0  0  0
    1.7100    0.8100    0.0000 C   0  0  0  0  0  0  0  0  0  0  0  0
    1.6330   -0.6880    0.0000 C   0  0  0  0  0  0  0  0  0  0  0  0
    2.8910   -1.5050    0.0000 C   0  0  0  0  0  0  0  0  0  0  0  0
    4.2270   -0.8230    0.0000 C   0  0  0  0  0  0  0  0  0  0  0  0
    4.3050    0.6750    0.0000 C   0  0  0  0  0  0  0  0  0  0  0  0
    5.6410    1.3570    0.0000 C   0  0  0  0  0  0  0  0  0  0  0  0
    5.7180    2.8550    0.0000 C   0  0  0  0  0  0  0  0  0  0  0  0
    4.4600    3.6710    0.0000 C   0  0  0  0  0  0  0  0  0  0  0  0
    3.1240    2.9890    0.0000 C   0  0  0  0  0  0  0  0  0  0  0  0
    3.0460    1.4910    0.0000 C   0  0  0  0  0  0  0  0  0  0  0  0
    5.4860   -1.6390    0.0000 O   0  0  0  0  0  0  0  0  0  0  0  0
    2.8140   -3.0030    0.0000 S   0  0  0  0  0  0  0  0  0  0  0  0
    1.4780   -3.6840    0.0000 C   0  0  0  0  0  0  0  0  0  0  0  0
    0.1420   -4.3660    0.0000 C   0  0  0  0  0  0  0  0  0  0  0  0
   -1.1170   -3.5500    0.0000 O   0  0  0  0  0  0  0  0  0  0  0  0
    0.0640   -5.8640    0.0000 O   0  0  0  0  0  0  0  0  0  0  0  0
   -2.2200    0.2620    0.0000 C   0  0  0  0  0  0  0  0  0  0  0  0
   -2.2980   -1.2360    0.0000 C   0  0  0  0  0  0  0  0  0  0  0  0
   -3.6340   -1.9180    0.0000 C   0  0  0  0  0  0  0  0  0  0  0  0
   -4.8920   -1.1020    0.0000 C   0  0  0  0  0  0  0  0  0  0  0  0
   -4.8150    0.3960    0.0000 C   0  0  0  0  0  0  0  0  0  0  0  0
   -6.0740    1.2120    0.0000 C   0  0  0  0  0  0  0  0  0  0  0  0
   -5.9960    2.7100    0.0000 C   0  0  0  0  0  0  0  0  0  0  0  0
   -4.6600    3.3920    0.0000 C   0  0  0  0  0  0  0  0  0  0  0  0
   -3.4020    2.5760    0.0000 N   0  0  0  0  0  0  0  0  0  0  0  0
   -3.4790    1.0780    0.0000 C   0  0  0  0  0  0  0  0  0  0  0  0
    0.5290    3.1240    0.0000 H   0  0  0  0  0  0  0  0  0  0  0  0
    0.2970   -1.3700    0.0000 H   0  0  0  0  0  0  0  0  0  0  0  0
    6.8990    0.5410    0.0000 H   0  0  0  0  0  0  0  0  0  0  0  0
    7.0540    3.5370    0.0000 H   0  0  0  0  0  0  0  0  0  0  0  0
    4.5370    5.1690    0.0000 H   0  0  0  0  0  0  0  0  0  0  0  0
    1.8650    3.8060    0.0000 H   0  0  0  0  0  0  0  0  0  0  0  0
    5.4090   -3.1370    0.0000 H   0  0  0  0  0  0  0  0  0  0  0  0
    2.1600   -5.0200    0.0000 H   0  0  0  0  0  0  0  0  0  0  0  0
    0.7960   -2.3480    0.0000 H   0  0  0  0  0  0  0  0  0  0  0  0
   -1.2720   -6.5460    0.0000 H   0  0  0  0  0  0  0  0  0  0  0  0
   -1.0390   -2.0520    0.0000 H   0  0  0  0  0  0  0  0  0  0  0  0
   -3.7110   -3.4160    0.0000 H   0  0  0  0  0  0  0  0  0  0  0  0
   -6.2280   -1.7840    0.0000 H   0  0  0  0  0  0  0  0  0  0  0  0
   -7.4100    0.5300    0.0000 H   0  0  0  0  0  0  0  0  0  0  0  0
   -7.2550    3.5260    0.0000 H   0  0  0  0  0  0  0  0  0  0  0  0
   -4.5830    4.8900    0.0000 H   0  0  0  0  0  0  0  0  0  0  0  0
  1  2  2  0  0  0  0
  1  3  2  0  0  0  0
  1  4  1  0  0  0  0
  1 21  1  0  0  0  0
  4  5  1  0  0  0  0
  4 31  1  0  0  0  0
  5  6  2  0  0  0  0
  5 14  1  0  0  0  0
  6  7  1  0  0  0  0
  6 32  1  0  0  0  0
  7  8  2  0  0  0  0
  7 16  1  0  0  0  0
  8  9  1  0  0  0  0
  8 15  1  0  0  0  0
  9 10  2  0  0  0  0
  9 14  1  0  0  0  0
 10 11  1  0  0  0  0
 10 33  1  0  0  0  0
 11 12  2  0  0  0  0
 11 34  1  0  0  0  0
 12 13  1  0  0  0  0
 12 35  1  0  0  0  0
 13 14  2  0  0  0  0
 13 36  1  0  0  0  0
 15 37  1  0  0  0  0
 16 17  1  0  0  0  0
 17 18  1  0  0  0  0
 17 38  1  0  0  0  0
 17 39  1  0  0  0  0
 18 19  2  0  0  0  0
 18 20  1  0  0  0  0
 20 40  1  0  0  0  0
 21 22  2  0  0  0  0
 21 30  1  0  0  0  0
 22 23  1  0  0  0  0
 22 41  1  0  0  0  0
 23 24  2  0  0  0  0
 23 42  1  0  0  0  0
 24 25  1  0  0  0  0
 24 43  1  0  0  0  0
 25 26  2  0  0  0  0
 25 30  1  0  0  0  0
 26 27  1  0  0  0  0
 26 44  1  0  0  0  0
 27 28  2  0  0  0  0
 27 45  1  0  0  0  0
 28 29  1  0  0  0  0
 28 46  1  0  0  0  0
 29 30  2  0  0  0  0
M  END
$$$$
