2D_structures\o31_MMV690467_2D.pdb
 OpenBabel02282413353D

 46 48  0  0  0  0  0  0  0  0999 V2000
  -10.4670    1.3520    0.0000 F   0  0  0  0  0  0  0  0  0  0  0  0
   -8.9710    1.4670    0.0000 C   0  0  0  0  0  0  0  0  0  0  0  0
   -9.0870    2.9630    0.0000 F   0  0  0  0  0  0  0  0  0  0  0  0
   -8.8560   -0.0280    0.0000 F   0  0  0  0  0  0  0  0  0  0  0  0
   -7.4760    1.5820    0.0000 C   0  0  0  0  0  0  0  0  0  0  0  0
   -6.5040    0.4400    0.0000 N   0  0  0  0  0  4  0  0  0  0  0  0
   -5.1170    1.0120    0.0000 C   0  0  0  0  0  0  0  0  0  0  0  0
   -5.2320    2.5070    0.0000 N   0  0  0  0  0  0  0  0  0  0  0  0
   -6.6900    2.8600    0.0000 O   0  0  0  0  0  0  0  0  0  0  0  0
   -3.8390    0.2260    0.0000 C   0  0  0  0  0  0  0  0  0  0  0  0
   -3.8810   -1.2740    0.0000 C   0  0  0  0  0  0  0  0  0  0  0  0
   -2.6040   -2.0600    0.0000 C   0  0  0  0  0  0  0  0  0  0  0  0
   -1.2840   -1.3460    0.0000 C   0  0  0  0  0  0  0  0  0  0  0  0
   -0.0070   -2.1320    0.0000 O   0  0  0  0  0  0  0  0  0  0  0  0
    1.3130   -1.4190    0.0000 C   0  0  0  0  0  0  0  0  0  0  0  0
    2.6320   -0.7050    0.0000 C   0  0  0  0  0  0  0  0  0  0  0  0
    3.9520    0.0080    0.0000 C   0  0  0  0  0  0  0  0  0  0  0  0
    5.2710    0.7210    0.0000 C   0  0  0  0  0  0  0  0  0  0  0  0
    6.6240    0.0730    0.0000 C   0  0  0  0  0  0  0  0  0  0  0  0
    7.6590    1.1590    0.0000 C   0  0  0  0  0  0  0  0  0  0  0  0
    6.9450    2.4790    0.0000 N   0  0  0  0  0  0  0  0  0  0  0  0
    5.4700    2.2080    0.0000 O   0  0  0  0  0  0  0  0  0  0  0  0
    9.1450    0.9610    0.0000 C   0  0  0  0  0  0  0  0  0  0  0  0
   -1.2420    0.1530    0.0000 C   0  0  0  0  0  0  0  0  0  0  0  0
   -2.5200    0.9390    0.0000 C   0  0  0  0  0  0  0  0  0  0  0  0
    0.0770    0.8670    0.0000 C   0  0  0  0  0  0  0  0  0  0  0  0
   -2.6460   -3.5590    0.0000 C   0  0  0  0  0  0  0  0  0  0  0  0
   -5.2010   -1.9870    0.0000 H   0  0  0  0  0  0  0  0  0  0  0  0
    2.0260   -2.7380    0.0000 H   0  0  0  0  0  0  0  0  0  0  0  0
    0.8510   -0.7690    0.0000 H   0  0  0  0  0  0  0  0  0  0  0  0
    1.9190    0.6140    0.0000 H   0  0  0  0  0  0  0  0  0  0  0  0
    3.3460   -2.0250    0.0000 H   0  0  0  0  0  0  0  0  0  0  0  0
    4.6650   -1.3120    0.0000 H   0  0  0  0  0  0  0  0  0  0  0  0
    3.2380    1.3270    0.0000 H   0  0  0  0  0  0  0  0  0  0  0  0
    6.8950   -1.4020    0.0000 H   0  0  0  0  0  0  0  0  0  0  0  0
   10.6320    0.7630    0.0000 H   0  0  0  0  0  0  0  0  0  0  0  0
    9.3440    2.4480    0.0000 H   0  0  0  0  0  0  0  0  0  0  0  0
    8.9470   -0.5260    0.0000 H   0  0  0  0  0  0  0  0  0  0  0  0
   -2.4780    2.4390    0.0000 H   0  0  0  0  0  0  0  0  0  0  0  0
    1.3970    1.5800    0.0000 H   0  0  0  0  0  0  0  0  0  0  0  0
    0.3680    0.1240    0.0000 H   0  0  0  0  0  0  0  0  0  0  0  0
   -0.6360    2.1860    0.0000 H   0  0  0  0  0  0  0  0  0  0  0  0
   -2.6870   -5.0590    0.0000 H   0  0  0  0  0  0  0  0  0  0  0  0
   -1.1460   -3.6010    0.0000 H   0  0  0  0  0  0  0  0  0  0  0  0
   -4.1450   -3.5170    0.0000 H   0  0  0  0  0  0  0  0  0  0  0  0
   -4.4822    3.1450    0.0000 H   0  0  0  0  0  0  0  0  0  0  0  0
  1  2  1  0  0  0  0
  2  3  1  0  0  0  0
  2  4  1  0  0  0  0
  2  5  1  0  0  0  0
  5  6  2  0  0  0  0
  5  9  1  0  0  0  0
  6  7  2  0  0  0  0
  7  8  1  0  0  0  0
  7 10  1  0  0  0  0
  8  9  1  0  0  0  0
  8 46  1  0  0  0  0
 10 11  2  0  0  0  0
 10 25  1  0  0  0  0
 11 12  1  0  0  0  0
 11 28  1  0  0  0  0
 12 13  2  0  0  0  0
 12 27  1  0  0  0  0
 13 14  1  0  0  0  0
 13 24  1  0  0  0  0
 14 15  1  0  0  0  0
 15 16  1  0  0  0  0
 15 29  1  0  0  0  0
 15 30  1  0  0  0  0
 16 17  1  0  0  0  0
 16 31  1  0  0  0  0
 16 32  1  0  0  0  0
 17 18  1  0  0  0  0
 17 33  1  0  0  0  0
 17 34  1  0  0  0  0
 18 19  2  0  0  0  0
 18 22  1  0  0  0  0
 19 20  1  0  0  0  0
 19 35  1  0  0  0  0
 20 21  2  0  0  0  0
 20 23  1  0  0  0  0
 21 22  1  0  0  0  0
 23 36  1  0  0  0  0
 23 37  1  0  0  0  0
 23 38  1  0  0  0  0
 24 25  2  0  0  0  0
 24 26  1  0  0  0  0
 25 39  1  0  0  0  0
 26 40  1  0  0  0  0
 26 41  1  0  0  0  0
 26 42  1  0  0  0  0
 27 43  1  0  0  0  0
 27 44  1  0  0  0  0
 27 45  1  0  0  0  0
M  END
$$$$
