2D_structures\o32_MMV1580493_2D.pdb
 OpenBabel02282413353D

 43 45  0  0  0  0  0  0  0  0999 V2000
    7.4920   -2.8080    0.0000 F   0  0  0  0  0  0  0  0  0  0  0  0
    6.3630   -1.8210    0.0000 C   0  0  0  0  0  0  0  0  0  0  0  0
    5.3760   -2.9510    0.0000 F   0  0  0  0  0  0  0  0  0  0  0  0
    7.3500   -0.6920    0.0000 F   0  0  0  0  0  0  0  0  0  0  0  0
    5.2330   -0.8340    0.0000 C   0  0  0  0  0  0  0  0  0  0  0  0
    3.8140   -1.3190    0.0000 C   0  0  0  0  0  0  0  0  0  0  0  0
    2.6840   -0.3320    0.0000 C   0  0  0  0  0  0  0  0  0  0  0  0
    2.9740    1.1400    0.0000 C   0  0  0  0  0  0  0  0  0  0  0  0
    4.3940    1.6240    0.0000 C   0  0  0  0  0  0  0  0  0  0  0  0
    5.5230    0.6370    0.0000 C   0  0  0  0  0  0  0  0  0  0  0  0
    4.6840    3.0960    0.0000 C   0  0  0  0  0  0  0  0  0  0  0  0
    4.9740    4.5680    0.0000 F   0  0  0  0  0  0  0  0  0  0  0  0
    6.1560    2.8060    0.0000 F   0  0  0  0  0  0  0  0  0  0  0  0
    3.2120    3.3860    0.0000 F   0  0  0  0  0  0  0  0  0  0  0  0
    1.2650   -0.8170    0.0000 C   0  0  0  0  0  0  0  0  0  0  0  0
    0.8220   -2.2500    0.0000 N   0  0  0  0  0  0  0  0  0  0  0  0
   -0.6770   -2.2720    0.0000 N   0  0  0  0  0  0  0  0  0  0  0  0
   -1.5410   -3.4990    0.0000 C   0  0  0  0  0  0  0  0  0  0  0  0
   -3.0350   -3.3640    0.0000 C   0  0  0  0  0  0  0  0  0  0  0  0
   -3.6650   -2.0030    0.0000 C   0  0  0  0  0  0  0  0  0  0  0  0
   -3.0920   -0.9320    0.0000 O   0  0  0  0  0  0  0  0  0  0  0  0
   -5.1590   -1.8680    0.0000 N   0  0  0  0  0  0  0  0  0  0  0  0
   -5.7900   -0.5070    0.0000 N   0  0  0  0  0  0  0  0  0  0  0  0
   -4.9260    0.7190    0.0000 C   0  0  0  0  0  0  0  0  0  0  0  0
   -3.4320    0.5850    0.0000 N   0  0  0  0  0  0  0  0  0  0  0  0
   -2.5690    1.8110    0.0000 C   0  0  0  0  0  0  0  0  0  0  0  0
   -3.1990    3.1720    0.0000 C   0  0  0  0  0  0  0  0  0  0  0  0
   -4.6930    3.3070    0.0000 C   0  0  0  0  0  0  0  0  0  0  0  0
   -5.5560    2.0800    0.0000 C   0  0  0  0  0  0  0  0  0  0  0  0
   -1.1620   -0.8530    0.0000 C   0  0  0  0  0  0  0  0  0  0  0  0
    0.0380    0.0470    0.0000 N   0  0  0  0  0  0  0  0  0  0  0  0
    3.5240   -2.7910    0.0000 H   0  0  0  0  0  0  0  0  0  0  0  0
    1.8450    2.1270    0.0000 H   0  0  0  0  0  0  0  0  0  0  0  0
    6.9430    1.1220    0.0000 H   0  0  0  0  0  0  0  0  0  0  0  0
   -0.9110   -4.8600    0.0000 H   0  0  0  0  0  0  0  0  0  0  0  0
   -3.8980   -4.5910    0.0000 H   0  0  0  0  0  0  0  0  0  0  0  0
   -6.0230   -3.0950    0.0000 H   0  0  0  0  0  0  0  0  0  0  0  0
   -7.2840   -0.3730    0.0000 H   0  0  0  0  0  0  0  0  0  0  0  0
   -1.0750    1.6760    0.0000 H   0  0  0  0  0  0  0  0  0  0  0  0
   -2.3350    4.3990    0.0000 H   0  0  0  0  0  0  0  0  0  0  0  0
   -5.3230    4.6680    0.0000 H   0  0  0  0  0  0  0  0  0  0  0  0
   -7.0500    2.2150    0.0000 H   0  0  0  0  0  0  0  0  0  0  0  0
   -2.2710   -0.3560    0.0000 H   0  0  0  0  0  0  0  0  0  0  0  0
  1  2  1  0  0  0  0
  2  3  1  0  0  0  0
  2  4  1  0  0  0  0
  2  5  1  0  0  0  0
  5  6  2  0  0  0  0
  5 10  1  0  0  0  0
  6  7  1  0  0  0  0
  6 32  1  0  0  0  0
  7  8  2  0  0  0  0
  7 15  1  0  0  0  0
  8  9  1  0  0  0  0
  8 33  1  0  0  0  0
  9 10  2  0  0  0  0
  9 11  1  0  0  0  0
 10 34  1  0  0  0  0
 11 12  1  0  0  0  0
 11 13  1  0  0  0  0
 11 14  1  0  0  0  0
 15 16  2  0  0  0  0
 15 31  1  0  0  0  0
 16 17  1  0  0  0  0
 17 18  1  0  0  0  0
 17 30  1  0  0  0  0
 18 19  2  0  0  0  0
 18 35  1  0  0  0  0
 19 20  1  0  0  0  0
 19 36  1  0  0  0  0
 20 21  2  0  0  0  0
 20 22  1  0  0  0  0
 22 23  1  0  0  0  0
 22 37  1  0  0  0  0
 23 24  1  0  0  0  0
 23 38  1  0  0  0  0
 24 25  2  0  0  0  0
 24 29  1  0  0  0  0
 25 26  1  0  0  0  0
 26 27  2  0  0  0  0
 26 39  1  0  0  0  0
 27 28  1  0  0  0  0
 27 40  1  0  0  0  0
 28 29  2  0  0  0  0
 28 41  1  0  0  0  0
 29 42  1  0  0  0  0
 30 31  2  0  0  0  0
 30 43  1  0  0  0  0
M  END
$$$$
