2D_structures\o34_MMV1580501_2D.pdb
 OpenBabel02282413353D

 47 48  0  0  0  0  0  0  0  0999 V2000
   -9.4760   -1.2230    0.0000 Cl  0  0  0  0  0  0  0  0  0  0  0  0
   -8.0970   -0.6330    0.0000 C   0  0  0  0  0  0  0  0  0  0  0  0
   -7.9190    0.8570    0.0000 C   0  0  0  0  0  0  0  0  0  0  0  0
   -6.5400    1.4470    0.0000 C   0  0  0  0  0  0  0  0  0  0  0  0
   -5.3390    0.5470    0.0000 C   0  0  0  0  0  0  0  0  0  0  0  0
   -3.9600    1.1370    0.0000 N   0  0  0  0  0  0  0  0  0  0  0  0
   -2.7590    0.2380    0.0000 C   0  0  0  0  0  0  0  0  0  0  0  0
   -2.9380   -1.2510    0.0000 O   0  0  0  0  0  0  0  0  0  0  0  0
   -1.3800    0.8280    0.0000 C   0  0  0  0  0  0  0  0  0  0  0  0
   -1.2020    2.3180    0.0000 O   0  0  0  0  0  0  0  0  0  0  0  0
   -0.1800   -0.0710    0.0000 N   0  0  0  0  0  0  0  0  0  0  0  0
    1.1990    0.5190    0.0000 C   0  0  0  0  0  0  0  0  0  0  0  0
    1.5410   -0.9420    0.0000 C   0  0  0  0  0  0  0  0  0  0  0  0
    2.9770   -1.3760    0.0000 C   0  0  0  0  0  0  0  0  0  0  0  0
    4.0710   -0.3500    0.0000 N   0  0  0  0  0  0  0  0  0  0  0  0
    3.7290    1.1110    0.0000 C   0  0  0  0  0  0  0  0  0  0  0  0
    2.2930    1.5450    0.0000 C   0  0  0  0  0  0  0  0  0  0  0  0
    3.9080    2.6000    0.0000 C   0  0  0  0  0  0  0  0  0  0  0  0
    5.2270    1.1930    0.0000 C   0  0  0  0  0  0  0  0  0  0  0  0
    4.1770   -2.2750    0.0000 C   0  0  0  0  0  0  0  0  0  0  0  0
    2.3000   -2.7150    0.0000 C   0  0  0  0  0  0  0  0  0  0  0  0
   -5.5170   -0.9420    0.0000 C   0  0  0  0  0  0  0  0  0  0  0  0
   -6.8970   -1.5320    0.0000 C   0  0  0  0  0  0  0  0  0  0  0  0
   -9.1190    1.7560    0.0000 H   0  0  0  0  0  0  0  0  0  0  0  0
   -6.3610    2.9360    0.0000 H   0  0  0  0  0  0  0  0  0  0  0  0
   -3.7810    2.6270    0.0000 H   0  0  0  0  0  0  0  0  0  0  0  0
   -0.4150   -1.0270    0.0000 H   0  0  0  0  0  0  0  0  0  0  0  0
    0.3790    1.7750    0.0000 H   0  0  0  0  0  0  0  0  0  0  0  0
    1.1820   -2.3980    0.0000 H   0  0  0  0  0  0  0  0  0  0  0  0
    0.5720   -1.1150    0.0000 H   0  0  0  0  0  0  0  0  0  0  0  0
    5.5060   -0.7840    0.0000 H   0  0  0  0  0  0  0  0  0  0  0  0
    1.0930    2.4440    0.0000 H   0  0  0  0  0  0  0  0  0  0  0  0
    2.5640    2.2950    0.0000 H   0  0  0  0  0  0  0  0  0  0  0  0
    4.0860    4.0890    0.0000 H   0  0  0  0  0  0  0  0  0  0  0  0
    5.4080    2.6040    0.0000 H   0  0  0  0  0  0  0  0  0  0  0  0
    3.1340    2.7910    0.0000 H   0  0  0  0  0  0  0  0  0  0  0  0
    6.7250    1.2760    0.0000 H   0  0  0  0  0  0  0  0  0  0  0  0
    5.3270    2.6900    0.0000 H   0  0  0  0  0  0  0  0  0  0  0  0
    5.6700   -0.2400    0.0000 H   0  0  0  0  0  0  0  0  0  0  0  0
    5.3780   -3.1750    0.0000 H   0  0  0  0  0  0  0  0  0  0  0  0
    3.4310   -3.5770    0.0000 H   0  0  0  0  0  0  0  0  0  0  0  0
    5.3400   -1.3280    0.0000 H   0  0  0  0  0  0  0  0  0  0  0  0
    1.6220   -4.0530    0.0000 H   0  0  0  0  0  0  0  0  0  0  0  0
    3.5450   -3.5500    0.0000 H   0  0  0  0  0  0  0  0  0  0  0  0
    0.8880   -2.2060    0.0000 H   0  0  0  0  0  0  0  0  0  0  0  0
   -4.3170   -1.8410    0.0000 H   0  0  0  0  0  0  0  0  0  0  0  0
   -7.0750   -3.0210    0.0000 H   0  0  0  0  0  0  0  0  0  0  0  0
  1  2  1  0  0  0  0
  2  3  2  0  0  0  0
  2 23  1  0  0  0  0
  3  4  1  0  0  0  0
  3 24  1  0  0  0  0
  4  5  2  0  0  0  0
  4 25  1  0  0  0  0
  5  6  1  0  0  0  0
  5 22  1  0  0  0  0
  6  7  1  0  0  0  0
  6 26  1  0  0  0  0
  7  8  2  0  0  0  0
  7  9  1  0  0  0  0
  9 10  2  0  0  0  0
  9 11  1  0  0  0  0
 11 12  1  0  0  0  0
 11 27  1  0  0  0  0
 12 13  1  0  0  0  0
 12 17  1  0  0  0  0
 12 28  1  0  0  0  0
 13 14  1  0  0  0  0
 13 29  1  0  0  0  0
 13 30  1  0  0  0  0
 14 15  1  0  0  0  0
 14 20  1  0  0  0  0
 14 21  1  0  0  0  0
 15 16  1  0  0  0  0
 15 31  1  0  0  0  0
 16 17  1  0  0  0  0
 16 18  1  0  0  0  0
 16 19  1  0  0  0  0
 17 32  1  0  0  0  0
 17 33  1  0  0  0  0
 18 34  1  0  0  0  0
 18 35  1  0  0  0  0
 18 36  1  0  0  0  0
 19 37  1  0  0  0  0
 19 38  1  0  0  0  0
 19 39  1  0  0  0  0
 20 40  1  0  0  0  0
 20 41  1  0  0  0  0
 20 42  1  0  0  0  0
 21 43  1  0  0  0  0
 21 44  1  0  0  0  0
 21 45  1  0  0  0  0
 22 23  2  0  0  0  0
 22 46  1  0  0  0  0
 23 47  1  0  0  0  0
M  END
$$$$
