2D_structures\o44_MMV1593514_2D.pdb
 OpenBabel02282413353D

 49 52  0  0  1  0  0  0  0  0999 V2000
  -10.1190    1.5070    0.0000 I   0  0  0  0  0  0  0  0  0  0  0  0
   -8.9700    0.5430    0.0000 C   0  0  0  0  0  0  0  0  0  0  0  0
   -7.5600    1.0560    0.0000 C   0  0  0  0  0  0  0  0  0  0  0  0
   -6.4110    0.0920    0.0000 C   0  0  0  0  0  0  0  0  0  0  0  0
   -6.6710   -1.3850    0.0000 C   0  0  0  0  0  0  0  0  0  0  0  0
   -8.0810   -1.8980    0.0000 C   0  0  0  0  0  0  0  0  0  0  0  0
   -9.2300   -0.9340    0.0000 C   0  0  0  0  0  0  0  0  0  0  0  0
   -5.0020    0.6050    0.0000 C   0  0  0  0  0  0  0  0  0  0  0  0
   -3.5920    1.1190    0.0000 N   0  0  0  0  0  0  0  0  0  0  0  0
   -2.4430    0.1550    0.0000 C   0  0  0  0  0  0  0  0  0  0  0  0
   -2.7030   -1.3230    0.0000 N   0  0  0  0  0  4  0  0  0  0  0  0
   -1.5540   -2.2870    0.0000 C   0  0  0  0  0  0  0  0  0  0  0  0
   -0.1450   -1.7740    0.0000 N   0  0  0  0  0  0  0  0  0  0  0  0
    0.1160   -0.2960    0.0000 C   0  0  0  0  0  0  0  0  0  0  0  0
   -1.0330    0.6680    0.0000 C   0  0  0  0  0  0  0  0  0  0  0  0
   -0.4720    2.0590    0.0000 N   0  0  0  0  0  0  0  0  0  0  0  0
    1.0250    1.9540    0.0000 C   0  0  0  0  0  0  0  0  0  0  0  0
    1.3880    0.4990    0.0000 N   0  0  0  0  0  0  0  0  0  0  0  0
    2.7790   -0.0630    0.0000 C   0  0  1  0  0  0  0  0  0  0  0  0
    4.0220   -0.9020    0.0000 O   0  0  0  0  0  0  0  0  0  0  0  0
    5.2040    0.0220    0.0000 C   0  0  1  0  0  0  0  0  0  0  0  0
    5.9990   -1.2500    0.0000 C   0  0  0  0  0  0  0  0  0  0  0  0
    5.2950   -2.5740    0.0000 O   0  0  0  0  0  0  0  0  0  0  0  0
    7.4980   -1.1970    0.0000 N   0  0  0  0  0  0  0  0  0  0  0  0
    8.2930   -2.4690    0.0000 C   0  0  0  0  0  0  0  0  0  0  0  0
    4.6910    1.4310    0.0000 C   0  0  1  0  0  0  0  0  0  0  0  0
    3.1920    1.3790    0.0000 C   0  0  1  0  0  0  0  0  0  0  0  0
    3.2960    2.8750    0.0000 O   0  0  0  0  0  0  0  0  0  0  0  0
    6.1460    1.7950    0.0000 O   0  0  0  0  0  0  0  0  0  0  0  0
   -1.8140   -3.7640    0.0000 Cl  0  0  0  0  0  0  0  0  0  0  0  0
   -7.3000    2.5330    0.0000 H   0  0  0  0  0  0  0  0  0  0  0  0
   -5.5220   -2.3490    0.0000 H   0  0  0  0  0  0  0  0  0  0  0  0
   -8.3410   -3.3750    0.0000 H   0  0  0  0  0  0  0  0  0  0  0  0
  -10.6400   -1.4470    0.0000 H   0  0  0  0  0  0  0  0  0  0  0  0
   -4.4880   -0.8040    0.0000 H   0  0  0  0  0  0  0  0  0  0  0  0
   -5.5150    2.0150    0.0000 H   0  0  0  0  0  0  0  0  0  0  0  0
   -3.3320    2.5960    0.0000 H   0  0  0  0  0  0  0  0  0  0  0  0
    1.9890    3.1030    0.0000 H   0  0  0  0  0  0  0  0  0  0  0  0
    2.0740   -1.3880    0.0000 H   0  0  0  0  0  0  0  0  0  0  0  0
    6.5520    0.6800    0.0000 H   0  0  0  0  0  0  0  0  0  0  0  0
    8.2020    0.1270    0.0000 H   0  0  0  0  0  0  0  0  0  0  0  0
    9.0880   -3.7410    0.0000 H   0  0  0  0  0  0  0  0  0  0  0  0
    9.5650   -1.6740    0.0000 H   0  0  0  0  0  0  0  0  0  0  0  0
    7.0210   -3.2640    0.0000 H   0  0  0  0  0  0  0  0  0  0  0  0
    4.6700    2.6460    0.0000 H   0  0  0  0  0  0  0  0  0  0  0  0
    1.9580    1.9280    0.0000 H   0  0  0  0  0  0  0  0  0  0  0  0
    4.3150    3.5370    0.0000 H   0  0  0  0  0  0  0  0  0  0  0  0
    6.5600    3.2360    0.0000 H   0  0  0  0  0  0  0  0  0  0  0  0
    0.6091   -2.4069    0.0000 H   0  0  0  0  0  0  0  0  0  0  0  0
  1  2  1  0  0  0  0
  2  3  2  0  0  0  0
  2  7  1  0  0  0  0
  3  4  1  0  0  0  0
  3 31  1  0  0  0  0
  4  5  2  0  0  0  0
  4  8  1  0  0  0  0
  5  6  1  0  0  0  0
  5 32  1  0  0  0  0
  6  7  2  0  0  0  0
  6 33  1  0  0  0  0
  7 34  1  0  0  0  0
  8  9  1  0  0  0  0
  8 35  1  0  0  0  0
  8 36  1  0  0  0  0
  9 10  1  0  0  0  0
  9 37  1  0  0  0  0
 10 11  2  0  0  0  0
 10 15  1  0  0  0  0
 11 12  2  0  0  0  0
 12 13  1  0  0  0  0
 12 30  1  0  0  0  0
 13 14  1  0  0  0  0
 13 49  1  0  0  0  0
 14 15  2  0  0  0  0
 14 18  1  0  0  0  0
 15 16  1  0  0  0  0
 16 17  2  0  0  0  0
 17 18  1  0  0  0  0
 17 38  1  0  0  0  0
 18 19  1  0  0  0  0
 19 20  1  0  0  0  0
 19 27  1  0  0  0  0
 19 39  1  1  0  0  0
 20 21  1  0  0  0  0
 21 22  1  0  0  0  0
 21 26  1  0  0  0  0
 21 40  1  1  0  0  0
 22 23  2  0  0  0  0
 22 24  1  0  0  0  0
 24 25  1  0  0  0  0
 24 41  1  0  0  0  0
 25 42  1  0  0  0  0
 25 43  1  0  0  0  0
 25 44  1  0  0  0  0
 26 27  1  0  0  0  0
 26 29  1  0  0  0  0
 26 45  1  6  0  0  0
 27 28  1  0  0  0  0
 27 46  1  1  0  0  0
 28 47  1  0  0  0  0
 29 48  1  0  0  0  0
M  END
$$$$
