2D_structures\o57_MMV690706_2D.pdb
 OpenBabel02282413353D

 48 50  0  0  0  0  0  0  0  0999 V2000
   -3.6600    3.9740    0.0000 O   0  0  0  0  0  0  0  0  0  0  0  0
   -4.1970    2.5730    0.0000 N   0  0  0  0  0  0  0  0  0  0  0  0
   -3.2520    1.4090    0.0000 C   0  0  0  0  0  0  0  0  0  0  0  0
   -2.2010    1.7110    0.0000 O   0  0  0  0  0  0  0  0  0  0  0  0
   -3.7880    0.0080    0.0000 C   0  0  0  0  0  0  0  0  0  0  0  0
   -2.3150   -0.2770    0.0000 C   0  0  0  0  0  0  0  0  0  0  0  0
   -0.8420   -0.5620    0.0000 S   0  0  0  0  0  0  0  0  0  0  0  0
   -0.5580    0.9110    0.0000 O   0  0  0  0  0  0  0  0  0  0  0  0
   -1.1270   -2.0350    0.0000 O   0  0  0  0  0  0  0  0  0  0  0  0
    0.6300   -0.8470    0.0000 C   0  0  0  0  0  0  0  0  0  0  0  0
    1.1200   -2.2650    0.0000 C   0  0  0  0  0  0  0  0  0  0  0  0
    2.5930   -2.5490    0.0000 C   0  0  0  0  0  0  0  0  0  0  0  0
    3.5760   -1.4160    0.0000 C   0  0  0  0  0  0  0  0  0  0  0  0
    5.0490   -1.7010    0.0000 O   0  0  0  0  0  0  0  0  0  0  0  0
    6.0320   -0.5680    0.0000 C   0  0  0  0  0  0  0  0  0  0  0  0
    7.5040   -0.8530    0.0000 C   0  0  0  0  0  0  0  0  0  0  0  0
    8.4870    0.2800    0.0000 C   0  0  0  0  0  0  0  0  0  0  0  0
    7.9980    1.6980    0.0000 C   0  0  0  0  0  0  0  0  0  0  0  0
    8.9810    2.8310    0.0000 Cl  0  0  0  0  0  0  0  0  0  0  0  0
    6.5250    1.9830    0.0000 C   0  0  0  0  0  0  0  0  0  0  0  0
    5.5420    0.8500    0.0000 C   0  0  0  0  0  0  0  0  0  0  0  0
    3.0860    0.0010    0.0000 C   0  0  0  0  0  0  0  0  0  0  0  0
    1.6130    0.2860    0.0000 C   0  0  0  0  0  0  0  0  0  0  0  0
   -3.8120   -1.4920    0.0000 C   0  0  0  0  0  0  0  0  0  0  0  0
   -5.1240   -2.2210    0.0000 C   0  0  0  0  0  0  0  0  0  0  0  0
   -6.4100   -1.4490    0.0000 O   0  0  0  0  0  0  0  0  0  0  0  0
   -6.3850    0.0510    0.0000 C   0  0  0  0  0  0  0  0  0  0  0  0
   -5.0740    0.7790    0.0000 C   0  0  0  0  0  0  0  0  0  0  0  0
   -4.6050    5.1390    0.0000 H   0  0  0  0  0  0  0  0  0  0  0  0
   -5.6960    2.5200    0.0000 H   0  0  0  0  0  0  0  0  0  0  0  0
   -1.9780    0.7630    0.0000 H   0  0  0  0  0  0  0  0  0  0  0  0
   -2.3700   -1.0720    0.0000 H   0  0  0  0  0  0  0  0  0  0  0  0
    0.1370   -3.3980    0.0000 H   0  0  0  0  0  0  0  0  0  0  0  0
    3.0830   -3.9670    0.0000 H   0  0  0  0  0  0  0  0  0  0  0  0
    7.9940   -2.2710    0.0000 H   0  0  0  0  0  0  0  0  0  0  0  0
    9.9600   -0.0050    0.0000 H   0  0  0  0  0  0  0  0  0  0  0  0
    6.0350    3.4000    0.0000 H   0  0  0  0  0  0  0  0  0  0  0  0
    4.6060    1.1530    0.0000 H   0  0  0  0  0  0  0  0  0  0  0  0
    3.6360    0.8180    0.0000 H   0  0  0  0  0  0  0  0  0  0  0  0
    1.1240    1.7040    0.0000 H   0  0  0  0  0  0  0  0  0  0  0  0
   -3.3230   -2.9100    0.0000 H   0  0  0  0  0  0  0  0  0  0  0  0
   -3.0160   -1.4640    0.0000 H   0  0  0  0  0  0  0  0  0  0  0  0
   -6.1070   -3.3540    0.0000 H   0  0  0  0  0  0  0  0  0  0  0  0
   -4.1790   -3.3850    0.0000 H   0  0  0  0  0  0  0  0  0  0  0  0
   -6.8750    1.4680    0.0000 H   0  0  0  0  0  0  0  0  0  0  0  0
   -7.8670   -0.1860    0.0000 H   0  0  0  0  0  0  0  0  0  0  0  0
   -4.3950    2.1160    0.0000 H   0  0  0  0  0  0  0  0  0  0  0  0
   -6.1540    1.8200    0.0000 H   0  0  0  0  0  0  0  0  0  0  0  0
  1  2  1  0  0  0  0
  1 29  1  0  0  0  0
  2  3  1  0  0  0  0
  2 30  1  0  0  0  0
  3  4  2  0  0  0  0
  3  5  1  0  0  0  0
  5  6  1  0  0  0  0
  5 24  1  0  0  0  0
  5 28  1  0  0  0  0
  6  7  1  0  0  0  0
  6 31  1  0  0  0  0
  6 32  1  0  0  0  0
  7  8  2  0  0  0  0
  7  9  2  0  0  0  0
  7 10  1  0  0  0  0
 10 11  2  0  0  0  0
 10 23  1  0  0  0  0
 11 12  1  0  0  0  0
 11 33  1  0  0  0  0
 12 13  2  0  0  0  0
 12 34  1  0  0  0  0
 13 14  1  0  0  0  0
 13 22  1  0  0  0  0
 14 15  1  0  0  0  0
 15 16  2  0  0  0  0
 15 21  1  0  0  0  0
 16 17  1  0  0  0  0
 16 35  1  0  0  0  0
 17 18  2  0  0  0  0
 17 36  1  0  0  0  0
 18 19  1  0  0  0  0
 18 20  1  0  0  0  0
 20 21  2  0  0  0  0
 20 37  1  0  0  0  0
 21 38  1  0  0  0  0
 22 23  2  0  0  0  0
 22 39  1  0  0  0  0
 23 40  1  0  0  0  0
 24 25  1  0  0  0  0
 24 41  1  0  0  0  0
 24 42  1  0  0  0  0
 25 26  1  0  0  0  0
 25 43  1  0  0  0  0
 25 44  1  0  0  0  0
 26 27  1  0  0  0  0
 27 28  1  0  0  0  0
 27 45  1  0  0  0  0
 27 46  1  0  0  0  0
 28 47  1  0  0  0  0
 28 48  1  0  0  0  0
M  END
$$$$
