2D_structures\o64_MMV1006203_2D.pdb
 OpenBabel02282413353D

 29 31  0  0  0  0  0  0  0  0999 V2000
    1.9630   -3.4740    0.0000 O   0  0  0  0  0  0  0  0  0  0  0  0
    1.4550   -2.0620    0.0000 C   0  0  0  0  0  0  0  0  0  0  0  0
   -0.0210   -1.7960    0.0000 C   0  0  0  0  0  0  0  0  0  0  0  0
   -0.5280   -0.3840    0.0000 C   0  0  0  0  0  0  0  0  0  0  0  0
   -2.0050   -0.1180    0.0000 C   0  0  0  0  0  0  0  0  0  0  0  0
   -2.5120    1.2940    0.0000 C   0  0  0  0  0  0  0  0  0  0  0  0
   -3.9880    1.5600    0.0000 C   0  0  0  0  0  0  0  0  0  0  0  0
   -4.9570    0.4150    0.0000 C   0  0  0  0  0  0  0  0  0  0  0  0
   -4.4490   -0.9960    0.0000 C   0  0  0  0  0  0  0  0  0  0  0  0
   -2.9730   -1.2630    0.0000 C   0  0  0  0  0  0  0  0  0  0  0  0
    0.4400    0.7610    0.0000 S   0  0  0  0  0  0  0  0  0  0  0  0
   -0.8560    1.5160    0.0000 O   0  0  0  0  0  0  0  0  0  0  0  0
    0.9590    2.1690    0.0000 O   0  0  0  0  0  0  0  0  0  0  0  0
    1.9170    0.4950    0.0000 C   0  0  0  0  0  0  0  0  0  0  0  0
    2.8850    1.6400    0.0000 C   0  0  0  0  0  0  0  0  0  0  0  0
    4.3620    1.3740    0.0000 C   0  0  0  0  0  0  0  0  0  0  0  0
    4.8690   -0.0380    0.0000 C   0  0  0  0  0  0  0  0  0  0  0  0
    3.9000   -1.1830    0.0000 C   0  0  0  0  0  0  0  0  0  0  0  0
    2.4240   -0.9170    0.0000 C   0  0  0  0  0  0  0  0  0  0  0  0
   -0.9900   -2.9410    0.0000 H   0  0  0  0  0  0  0  0  0  0  0  0
   -1.5430    2.4390    0.0000 H   0  0  0  0  0  0  0  0  0  0  0  0
   -4.4950    2.9720    0.0000 H   0  0  0  0  0  0  0  0  0  0  0  0
   -6.4330    0.6810    0.0000 H   0  0  0  0  0  0  0  0  0  0  0  0
   -5.4180   -2.1420    0.0000 H   0  0  0  0  0  0  0  0  0  0  0  0
   -2.4660   -2.6740    0.0000 H   0  0  0  0  0  0  0  0  0  0  0  0
    2.3780    3.0520    0.0000 H   0  0  0  0  0  0  0  0  0  0  0  0
    5.3300    2.5190    0.0000 H   0  0  0  0  0  0  0  0  0  0  0  0
    6.3450   -0.3040    0.0000 H   0  0  0  0  0  0  0  0  0  0  0  0
    4.4070   -2.5950    0.0000 H   0  0  0  0  0  0  0  0  0  0  0  0
  1  2  2  0  0  0  0
  2  3  1  0  0  0  0
  2 19  1  0  0  0  0
  3  4  2  0  0  0  0
  3 20  1  0  0  0  0
  4  5  1  0  0  0  0
  4 11  1  0  0  0  0
  5  6  2  0  0  0  0
  5 10  1  0  0  0  0
  6  7  1  0  0  0  0
  6 21  1  0  0  0  0
  7  8  2  0  0  0  0
  7 22  1  0  0  0  0
  8  9  1  0  0  0  0
  8 23  1  0  0  0  0
  9 10  2  0  0  0  0
  9 24  1  0  0  0  0
 10 25  1  0  0  0  0
 11 12  2  0  0  0  0
 11 13  2  0  0  0  0
 11 14  1  0  0  0  0
 14 15  2  0  0  0  0
 14 19  1  0  0  0  0
 15 16  1  0  0  0  0
 15 26  1  0  0  0  0
 16 17  2  0  0  0  0
 16 27  1  0  0  0  0
 17 18  1  0  0  0  0
 17 28  1  0  0  0  0
 18 19  2  0  0  0  0
 18 29  1  0  0  0  0
M  END
$$$$
