2D_structures\o66_MMV1782349_2D.pdb
 OpenBabel02282413353D

 43 45  0  0  0  0  0  0  0  0999 V2000
   -8.3800    0.9400    0.0000 C   0  0  0  0  0  0  0  0  0  0  0  0
   -6.8840    1.0460    0.0000 C   0  0  0  0  0  0  0  0  0  0  0  0
   -5.9190   -0.1020    0.0000 C   0  0  0  0  0  0  0  0  0  0  0  0
   -4.5280    0.4600    0.0000 C   0  0  0  0  0  0  0  0  0  0  0  0
   -3.2560   -0.3340    0.0000 C   0  0  0  0  0  0  0  0  0  0  0  0
   -1.9830   -1.1270    0.0000 C   0  0  0  0  0  0  0  0  0  0  0  0
   -0.7110   -1.9210    0.0000 O   0  0  0  0  0  0  0  0  0  0  0  0
    0.6130   -1.2160    0.0000 C   0  0  0  0  0  0  0  0  0  0  0  0
    1.8860   -2.0100    0.0000 C   0  0  0  0  0  0  0  0  0  0  0  0
    1.8350   -3.5090    0.0000 C   0  0  0  0  0  0  0  0  0  0  0  0
    3.2100   -1.3050    0.0000 C   0  0  0  0  0  0  0  0  0  0  0  0
    3.2610    0.1940    0.0000 C   0  0  0  0  0  0  0  0  0  0  0  0
    1.9890    0.9880    0.0000 C   0  0  0  0  0  0  0  0  0  0  0  0
    0.6650    0.2830    0.0000 C   0  0  0  0  0  0  0  0  0  0  0  0
   -0.6080    1.0770    0.0000 C   0  0  0  0  0  0  0  0  0  0  0  0
    4.5850    0.8990    0.0000 C   0  0  0  0  0  0  0  0  0  0  0  0
    4.7930    2.3850    0.0000 N   0  0  0  0  0  4  0  0  0  0  0  0
    6.2700    2.6460    0.0000 N   0  0  0  0  0  0  0  0  0  0  0  0
    6.9750    1.3220    0.0000 N   0  0  0  0  0  0  0  0  0  0  0  0
    8.4610    1.1150    0.0000 C   0  0  0  0  0  0  0  0  0  0  0  0
    5.9340    0.2430    0.0000 N   0  0  0  0  0  0  0  0  0  0  0  0
   -4.6340    1.9570    0.0000 O   0  0  0  0  0  0  0  0  0  0  0  0
   -6.0900    2.3190    0.0000 N   0  0  0  0  0  0  0  0  0  0  0  0
   -9.8760    0.8350    0.0000 H   0  0  0  0  0  0  0  0  0  0  0  0
   -8.4860    2.4370    0.0000 H   0  0  0  0  0  0  0  0  0  0  0  0
   -8.2740   -0.5560    0.0000 H   0  0  0  0  0  0  0  0  0  0  0  0
   -6.2810   -1.5580    0.0000 H   0  0  0  0  0  0  0  0  0  0  0  0
   -2.4620    0.9390    0.0000 H   0  0  0  0  0  0  0  0  0  0  0  0
   -4.0500   -1.6060    0.0000 H   0  0  0  0  0  0  0  0  0  0  0  0
   -1.4820   -0.5080    0.0000 H   0  0  0  0  0  0  0  0  0  0  0  0
   -2.7770   -2.4000    0.0000 H   0  0  0  0  0  0  0  0  0  0  0  0
    1.7830   -5.0090    0.0000 H   0  0  0  0  0  0  0  0  0  0  0  0
    3.3340   -3.5610    0.0000 H   0  0  0  0  0  0  0  0  0  0  0  0
    0.3360   -3.4580    0.0000 H   0  0  0  0  0  0  0  0  0  0  0  0
    4.4830   -2.0990    0.0000 H   0  0  0  0  0  0  0  0  0  0  0  0
    2.0400    2.4870    0.0000 H   0  0  0  0  0  0  0  0  0  0  0  0
   -1.8810    1.8710    0.0000 H   0  0  0  0  0  0  0  0  0  0  0  0
    0.1860    2.3490    0.0000 H   0  0  0  0  0  0  0  0  0  0  0  0
   -0.9440    0.3540    0.0000 H   0  0  0  0  0  0  0  0  0  0  0  0
    9.9460    0.9070    0.0000 H   0  0  0  0  0  0  0  0  0  0  0  0
    8.2530   -0.3710    0.0000 H   0  0  0  0  0  0  0  0  0  0  0  0
    8.6680    2.6000    0.0000 H   0  0  0  0  0  0  0  0  0  0  0  0
    6.1058   -0.7264    0.0000 H   0  0  0  0  0  0  0  0  0  0  0  0
  1  2  1  0  0  0  0
  1 24  1  0  0  0  0
  1 25  1  0  0  0  0
  1 26  1  0  0  0  0
  2  3  1  0  0  0  0
  2 23  2  0  0  0  0
  3  4  2  0  0  0  0
  3 27  1  0  0  0  0
  4  5  1  0  0  0  0
  4 22  1  0  0  0  0
  5  6  1  0  0  0  0
  5 28  1  0  0  0  0
  5 29  1  0  0  0  0
  6  7  1  0  0  0  0
  6 30  1  0  0  0  0
  6 31  1  0  0  0  0
  7  8  1  0  0  0  0
  8  9  2  0  0  0  0
  8 14  1  0  0  0  0
  9 10  1  0  0  0  0
  9 11  1  0  0  0  0
 10 32  1  0  0  0  0
 10 33  1  0  0  0  0
 10 34  1  0  0  0  0
 11 12  2  0  0  0  0
 11 35  1  0  0  0  0
 12 13  1  0  0  0  0
 12 16  1  0  0  0  0
 13 14  2  0  0  0  0
 13 36  1  0  0  0  0
 14 15  1  0  0  0  0
 15 37  1  0  0  0  0
 15 38  1  0  0  0  0
 15 39  1  0  0  0  0
 16 17  2  0  0  0  0
 16 21  1  0  0  0  0
 17 18  2  0  0  0  0
 18 19  1  0  0  0  0
 19 20  1  0  0  0  0
 19 21  1  0  0  0  0
 20 40  1  0  0  0  0
 20 41  1  0  0  0  0
 20 42  1  0  0  0  0
 21 43  1  0  0  0  0
 22 23  1  0  0  0  0
M  END
$$$$
