2D_structures\o68_MMV1782352_2D.pdb
 OpenBabel02282413353D

 58 61  0  0  1  0  0  0  0  0999 V2000
   -9.2820   -3.2900    0.0000 O   0  0  0  0  0  0  0  0  0  0  0  0
   -8.8310   -1.8600    0.0000 C   0  0  0  0  0  0  0  0  0  0  0  0
   -9.8450   -0.7540    0.0000 O   0  0  0  0  0  0  0  0  0  0  0  0
   -7.3670   -1.5350    0.0000 C   0  0  0  0  0  0  0  0  0  0  0  0
   -5.9020   -1.2100    0.0000 O   0  0  0  0  0  0  0  0  0  0  0  0
   -5.4520    0.2210    0.0000 C   0  0  0  0  0  0  0  0  0  0  0  0
   -6.4650    1.3270    0.0000 C   0  0  0  0  0  0  0  0  0  0  0  0
   -6.0150    2.7580    0.0000 C   0  0  0  0  0  0  0  0  0  0  0  0
   -4.5510    3.0830    0.0000 C   0  0  0  0  0  0  0  0  0  0  0  0
   -3.5370    1.9770    0.0000 C   0  0  0  0  0  0  0  0  0  0  0  0
   -2.0720    2.3020    0.0000 C   0  0  0  0  0  0  0  0  0  0  0  0
   -1.0590    1.1960    0.0000 C   0  0  1  0  0  0  0  0  0  0  0  0
   -0.1460    2.3870    0.0000 O   0  0  0  0  0  0  0  0  0  0  0  0
    0.2720    0.5040    0.0000 C   0  0  0  0  0  0  0  0  0  0  0  0
    1.6030   -0.1880    0.0000 O   0  0  0  0  0  0  0  0  0  0  0  0
    2.8680    0.6180    0.0000 C   0  0  0  0  0  0  0  0  0  0  0  0
    2.8020    2.1170    0.0000 O   0  0  0  0  0  0  0  0  0  0  0  0
    4.1980   -0.0740    0.0000 N   0  0  0  0  0  0  0  0  0  0  0  0
    5.4630    0.7320    0.0000 C   0  0  0  0  0  0  0  0  0  0  0  0
    6.7940    0.0400    0.0000 C   0  0  0  0  0  0  0  0  0  0  0  0
    8.0590    0.8470    0.0000 C   0  0  0  0  0  0  0  0  0  0  0  0
    7.9930    2.3450    0.0000 C   0  0  0  0  0  0  0  0  0  0  0  0
    6.6620    3.0370    0.0000 C   0  0  0  0  0  0  0  0  0  0  0  0
    5.3970    2.2310    0.0000 C   0  0  0  0  0  0  0  0  0  0  0  0
    4.2640   -1.5720    0.0000 C   0  0  0  0  0  0  0  0  0  0  0  0
    2.9990   -2.3790    0.0000 C   0  0  0  0  0  0  0  0  0  0  0  0
    3.0650   -3.8770    0.0000 C   0  0  0  0  0  0  0  0  0  0  0  0
    4.3960   -4.5700    0.0000 C   0  0  0  0  0  0  0  0  0  0  0  0
    5.6610   -3.7630    0.0000 C   0  0  0  0  0  0  0  0  0  0  0  0
    5.5950   -2.2650    0.0000 C   0  0  0  0  0  0  0  0  0  0  0  0
   -1.5090   -0.2340    0.0000 C   0  0  0  0  0  0  0  0  0  0  0  0
   -2.9740   -0.5590    0.0000 C   0  0  0  0  0  0  0  0  0  0  0  0
   -3.9870    0.5460    0.0000 C   0  0  0  0  0  0  0  0  0  0  0  0
  -10.7460   -3.6160    0.0000 H   0  0  0  0  0  0  0  0  0  0  0  0
   -7.6920   -0.0700    0.0000 H   0  0  0  0  0  0  0  0  0  0  0  0
   -7.0420   -2.9990    0.0000 H   0  0  0  0  0  0  0  0  0  0  0  0
   -7.9300    1.0020    0.0000 H   0  0  0  0  0  0  0  0  0  0  0  0
   -7.0290    3.8630    0.0000 H   0  0  0  0  0  0  0  0  0  0  0  0
   -4.1000    4.5130    0.0000 H   0  0  0  0  0  0  0  0  0  0  0  0
   -1.3130    2.9280    0.0000 H   0  0  0  0  0  0  0  0  0  0  0  0
   -2.6470    3.6880    0.0000 H   0  0  0  0  0  0  0  0  0  0  0  0
   -0.4090    3.3350    0.0000 H   0  0  0  0  0  0  0  0  0  0  0  0
   -0.0070   -0.2430    0.0000 H   0  0  0  0  0  0  0  0  0  0  0  0
    0.9640    1.8350    0.0000 H   0  0  0  0  0  0  0  0  0  0  0  0
    6.9570   -0.9300    0.0000 H   0  0  0  0  0  0  0  0  0  0  0  0
    9.3890    0.1540    0.0000 H   0  0  0  0  0  0  0  0  0  0  0  0
    9.2580    3.1510    0.0000 H   0  0  0  0  0  0  0  0  0  0  0  0
    6.5960    4.5360    0.0000 H   0  0  0  0  0  0  0  0  0  0  0  0
    4.0670    2.9230    0.0000 H   0  0  0  0  0  0  0  0  0  0  0  0
    1.6690   -1.6870    0.0000 H   0  0  0  0  0  0  0  0  0  0  0  0
    1.8000   -4.6840    0.0000 H   0  0  0  0  0  0  0  0  0  0  0  0
    4.4620   -6.0680    0.0000 H   0  0  0  0  0  0  0  0  0  0  0  0
    6.9910   -4.4550    0.0000 H   0  0  0  0  0  0  0  0  0  0  0  0
    6.4830   -1.8410    0.0000 H   0  0  0  0  0  0  0  0  0  0  0  0
   -1.4430   -1.7330    0.0000 H   0  0  0  0  0  0  0  0  0  0  0  0
   -0.7380   -0.4340    0.0000 H   0  0  0  0  0  0  0  0  0  0  0  0
   -4.2390   -1.3660    0.0000 H   0  0  0  0  0  0  0  0  0  0  0  0
   -2.3990   -1.9450    0.0000 H   0  0  0  0  0  0  0  0  0  0  0  0
  1  2  1  0  0  0  0
  1 34  1  0  0  0  0
  2  3  2  0  0  0  0
  2  4  1  0  0  0  0
  4  5  1  0  0  0  0
  4 35  1  0  0  0  0
  4 36  1  0  0  0  0
  5  6  1  0  0  0  0
  6  7  2  0  0  0  0
  6 33  1  0  0  0  0
  7  8  1  0  0  0  0
  7 37  1  0  0  0  0
  8  9  2  0  0  0  0
  8 38  1  0  0  0  0
  9 10  1  0  0  0  0
  9 39  1  0  0  0  0
 10 11  1  0  0  0  0
 10 33  2  0  0  0  0
 11 12  1  0  0  0  0
 11 40  1  0  0  0  0
 11 41  1  0  0  0  0
 12 13  1  6  0  0  0
 12 14  1  0  0  0  0
 12 31  1  0  0  0  0
 13 42  1  0  0  0  0
 14 15  1  0  0  0  0
 14 43  1  0  0  0  0
 14 44  1  0  0  0  0
 15 16  1  0  0  0  0
 16 17  2  0  0  0  0
 16 18  1  0  0  0  0
 18 19  1  0  0  0  0
 18 25  1  0  0  0  0
 19 20  2  0  0  0  0
 19 24  1  0  0  0  0
 20 21  1  0  0  0  0
 20 45  1  0  0  0  0
 21 22  2  0  0  0  0
 21 46  1  0  0  0  0
 22 23  1  0  0  0  0
 22 47  1  0  0  0  0
 23 24  2  0  0  0  0
 23 48  1  0  0  0  0
 24 49  1  0  0  0  0
 25 26  2  0  0  0  0
 25 30  1  0  0  0  0
 26 27  1  0  0  0  0
 26 50  1  0  0  0  0
 27 28  2  0  0  0  0
 27 51  1  0  0  0  0
 28 29  1  0  0  0  0
 28 52  1  0  0  0  0
 29 30  2  0  0  0  0
 29 53  1  0  0  0  0
 30 54  1  0  0  0  0
 31 32  1  0  0  0  0
 31 55  1  0  0  0  0
 31 56  1  0  0  0  0
 32 33  1  0  0  0  0
 32 57  1  0  0  0  0
 32 58  1  0  0  0  0
M  END
$$$$
