2D_structures\o69_MMV1782350_2D.pdb
 OpenBabel02282413353D

 59 62  0  0  0  0  0  0  0  0999 V2000
    6.5310   -0.0460    0.0000 C   0  0  0  0  0  0  0  0  0  0  0  0
    6.7620    1.4360    0.0000 C   0  0  0  0  0  0  0  0  0  0  0  0
    6.9940    2.9190    0.0000 C   0  0  0  0  0  0  0  0  0  0  0  0
    5.2800    1.6680    0.0000 O   0  0  0  0  0  0  0  0  0  0  0  0
    4.3390    0.5000    0.0000 C   0  0  0  0  0  0  0  0  0  0  0  0
    4.8800   -0.8990    0.0000 C   0  0  0  0  0  0  0  0  0  0  0  0
    3.9390   -2.0670    0.0000 C   0  0  0  0  0  0  0  0  0  0  0  0
    2.4570   -1.8360    0.0000 C   0  0  0  0  0  0  0  0  0  0  0  0
    1.9160   -0.4370    0.0000 C   0  0  0  0  0  0  0  0  0  0  0  0
    2.8570    0.7310    0.0000 C   0  0  0  0  0  0  0  0  0  0  0  0
    1.5150   -3.0040    0.0000 N   0  0  0  0  0  0  0  0  0  0  0  0
    1.9070   -4.4520    0.0000 C   0  0  0  0  0  0  0  0  0  0  0  0
    0.6510   -5.2720    0.0000 N   0  0  0  0  0  0  0  0  0  0  0  0
   -0.5170   -4.3310    0.0000 C   0  0  0  0  0  0  0  0  0  0  0  0
   -1.9980   -4.5690    0.0000 C   0  0  0  0  0  0  0  0  0  0  0  0
   -2.9450   -3.4050    0.0000 C   0  0  0  0  0  0  0  0  0  0  0  0
   -4.4260   -3.6430    0.0000 C   0  0  0  0  0  0  0  0  0  0  0  0
   -5.3720   -2.4800    0.0000 C   0  0  0  0  0  0  0  0  0  0  0  0
   -4.8380   -1.0780    0.0000 C   0  0  0  0  0  0  0  0  0  0  0  0
   -3.3570   -0.8400    0.0000 C   0  0  0  0  0  0  0  0  0  0  0  0
   -2.8230    0.5620    0.0000 C   0  0  0  0  0  0  0  0  0  0  0  0
   -3.7700    1.7250    0.0000 C   0  0  0  0  0  0  0  0  0  0  0  0
   -5.2510    1.4870    0.0000 C   0  0  0  0  0  0  0  0  0  0  0  0
   -5.7850    0.0850    0.0000 C   0  0  0  0  0  0  0  0  0  0  0  0
   -3.2350    3.1270    0.0000 C   0  0  0  0  0  0  0  0  0  0  0  0
   -2.7010    4.5280    0.0000 C   0  0  0  0  0  0  0  0  0  0  0  0
   -4.6370    3.6610    0.0000 C   0  0  0  0  0  0  0  0  0  0  0  0
   -1.8340    2.5920    0.0000 O   0  0  0  0  0  0  0  0  0  0  0  0
   -2.4100   -2.0040    0.0000 C   0  0  0  0  0  0  0  0  0  0  0  0
   -0.9290   -1.7650    0.0000 C   0  0  0  0  0  0  0  0  0  0  0  0
    0.0170   -2.9290    0.0000 C   0  0  0  0  0  0  0  0  0  0  0  0
    6.5050   -0.8420    0.0000 H   0  0  0  0  0  0  0  0  0  0  0  0
    8.0130   -0.2770    0.0000 H   0  0  0  0  0  0  0  0  0  0  0  0
    5.3210   -0.1540    0.0000 H   0  0  0  0  0  0  0  0  0  0  0  0
    8.2450    1.2050    0.0000 H   0  0  0  0  0  0  0  0  0  0  0  0
    7.2250    4.4010    0.0000 H   0  0  0  0  0  0  0  0  0  0  0  0
    8.4760    2.6870    0.0000 H   0  0  0  0  0  0  0  0  0  0  0  0
    5.5120    3.1500    0.0000 H   0  0  0  0  0  0  0  0  0  0  0  0
    5.6470   -1.1170    0.0000 H   0  0  0  0  0  0  0  0  0  0  0  0
    4.4790   -3.4660    0.0000 H   0  0  0  0  0  0  0  0  0  0  0  0
    0.4730   -0.0270    0.0000 H   0  0  0  0  0  0  0  0  0  0  0  0
    2.3160    2.1300    0.0000 H   0  0  0  0  0  0  0  0  0  0  0  0
    3.3090   -4.9860    0.0000 H   0  0  0  0  0  0  0  0  0  0  0  0
   -2.5320   -5.9700    0.0000 H   0  0  0  0  0  0  0  0  0  0  0  0
   -4.9600   -5.0450    0.0000 H   0  0  0  0  0  0  0  0  0  0  0  0
   -6.8530   -2.7180    0.0000 H   0  0  0  0  0  0  0  0  0  0  0  0
   -2.1570   -1.7400    0.0000 H   0  0  0  0  0  0  0  0  0  0  0  0
   -1.3420    0.8000    0.0000 H   0  0  0  0  0  0  0  0  0  0  0  0
   -6.1970    2.6510    0.0000 H   0  0  0  0  0  0  0  0  0  0  0  0
   -7.2660   -0.1530    0.0000 H   0  0  0  0  0  0  0  0  0  0  0  0
   -2.1670    5.9300    0.0000 H   0  0  0  0  0  0  0  0  0  0  0  0
   -1.2450    4.1690    0.0000 H   0  0  0  0  0  0  0  0  0  0  0  0
   -4.0270    5.2300    0.0000 H   0  0  0  0  0  0  0  0  0  0  0  0
   -6.0390    4.1950    0.0000 H   0  0  0  0  0  0  0  0  0  0  0  0
   -4.2770    5.1170    0.0000 H   0  0  0  0  0  0  0  0  0  0  0  0
   -5.4940    2.4300    0.0000 H   0  0  0  0  0  0  0  0  0  0  0  0
   -0.5630    3.3900    0.0000 H   0  0  0  0  0  0  0  0  0  0  0  0
   -3.0470   -0.6460    0.0000 H   0  0  0  0  0  0  0  0  0  0  0  0
   -0.5700   -0.3090    0.0000 H   0  0  0  0  0  0  0  0  0  0  0  0
  1  2  1  0  0  0  0
  1 32  1  0  0  0  0
  1 33  1  0  0  0  0
  1 34  1  0  0  0  0
  2  3  1  0  0  0  0
  2  4  1  0  0  0  0
  2 35  1  0  0  0  0
  3 36  1  0  0  0  0
  3 37  1  0  0  0  0
  3 38  1  0  0  0  0
  4  5  1  0  0  0  0
  5  6  2  0  0  0  0
  5 10  1  0  0  0  0
  6  7  1  0  0  0  0
  6 39  1  0  0  0  0
  7  8  2  0  0  0  0
  7 40  1  0  0  0  0
  8  9  1  0  0  0  0
  8 11  1  0  0  0  0
  9 10  2  0  0  0  0
  9 41  1  0  0  0  0
 10 42  1  0  0  0  0
 11 12  1  0  0  0  0
 11 31  1  0  0  0  0
 12 13  2  0  0  0  0
 12 43  1  0  0  0  0
 13 14  1  0  0  0  0
 14 15  2  0  0  0  0
 14 31  1  0  0  0  0
 15 16  1  0  0  0  0
 15 44  1  0  0  0  0
 16 17  1  0  0  0  0
 16 29  2  0  0  0  0
 17 18  2  0  0  0  0
 17 45  1  0  0  0  0
 18 19  1  0  0  0  0
 18 46  1  0  0  0  0
 19 20  2  0  0  0  0
 19 24  1  0  0  0  0
 20 21  1  0  0  0  0
 20 47  1  0  0  0  0
 21 22  2  0  0  0  0
 21 48  1  0  0  0  0
 22 23  1  0  0  0  0
 22 25  1  0  0  0  0
 23 24  2  0  0  0  0
 23 49  1  0  0  0  0
 24 50  1  0  0  0  0
 25 26  1  0  0  0  0
 25 27  1  0  0  0  0
 25 28  1  0  0  0  0
 26 51  1  0  0  0  0
 26 52  1  0  0  0  0
 26 53  1  0  0  0  0
 27 54  1  0  0  0  0
 27 55  1  0  0  0  0
 27 56  1  0  0  0  0
 28 57  1  0  0  0  0
 29 30  1  0  0  0  0
 29 58  1  0  0  0  0
 30 31  2  0  0  0  0
 30 59  1  0  0  0  0
M  END
$$$$
