2D_structures\o72_MMV1613563_2D.pdb
 OpenBabel02282413353D

 48 51  0  0  1  0  0  0  0  0999 V2000
    2.3080    4.8280    0.0000 C   0  0  0  0  0  0  0  0  0  0  0  0
    0.9030    4.3020    0.0000 O   0  0  0  0  0  0  0  0  0  0  0  0
    0.6560    2.8230    0.0000 C   0  0  0  0  0  0  0  0  0  0  0  0
   -0.7490    2.2970    0.0000 C   0  0  0  0  0  0  0  0  0  0  0  0
   -0.9960    0.8180    0.0000 C   0  0  0  0  0  0  0  0  0  0  0  0
   -2.4010    0.2920    0.0000 C   0  0  0  0  0  0  0  0  0  0  0  0
   -3.8060   -0.2340    0.0000 C   0  0  0  0  0  0  0  0  0  0  0  0
   -4.0530   -1.7130    0.0000 C   0  0  0  0  0  0  0  0  0  0  0  0
   -5.4580   -2.2390    0.0000 N   0  0  0  0  0  0  0  0  0  0  0  0
   -6.6160   -1.2850    0.0000 C   0  0  0  0  0  0  0  0  0  0  0  0
   -8.0210   -1.8110    0.0000 N   0  0  0  0  0  0  0  0  0  0  0  0
   -6.3690    0.1940    0.0000 N   0  0  0  0  0  0  0  0  0  0  0  0
   -4.9640    0.7200    0.0000 C   0  0  0  0  0  0  0  0  0  0  0  0
   -4.7170    2.2000    0.0000 N   0  0  0  0  0  0  0  0  0  0  0  0
    0.1610   -0.1360    0.0000 C   0  0  0  0  0  0  0  0  0  0  0  0
   -0.0860   -1.6160    0.0000 C   0  0  0  0  0  0  0  0  0  0  0  0
    1.0720   -2.5690    0.0000 C   0  0  0  0  0  0  0  0  0  0  0  0
    2.4770   -2.0440    0.0000 C   0  0  1  0  0  0  0  0  0  0  0  0
    2.7240   -0.5640    0.0000 O   0  0  0  0  0  0  0  0  0  0  0  0
    1.5660    0.3900    0.0000 C   0  0  0  0  0  0  0  0  0  0  0  0
    1.8130    1.8690    0.0000 C   0  0  0  0  0  0  0  0  0  0  0  0
    3.2180    2.3950    0.0000 O   0  0  0  0  0  0  0  0  0  0  0  0
    4.3760    1.4410    0.0000 C   0  0  0  0  0  0  0  0  0  0  0  0
    3.9770   -2.0300    0.0000 C   0  0  0  0  0  0  0  0  0  0  0  0
    5.3910   -2.5310    0.0000 C   0  0  0  0  0  0  0  0  0  0  0  0
    4.2500   -3.5050    0.0000 C   0  0  0  0  0  0  0  0  0  0  0  0
    3.7130    5.3540    0.0000 H   0  0  0  0  0  0  0  0  0  0  0  0
    1.7820    6.2330    0.0000 H   0  0  0  0  0  0  0  0  0  0  0  0
    2.8330    3.4230    0.0000 H   0  0  0  0  0  0  0  0  0  0  0  0
   -1.9070    3.2510    0.0000 H   0  0  0  0  0  0  0  0  0  0  0  0
   -1.8760   -1.1130    0.0000 H   0  0  0  0  0  0  0  0  0  0  0  0
   -2.9270    1.6970    0.0000 H   0  0  0  0  0  0  0  0  0  0  0  0
   -2.8960   -2.6670    0.0000 H   0  0  0  0  0  0  0  0  0  0  0  0
   -8.2680   -3.2900    0.0000 H   0  0  0  0  0  0  0  0  0  0  0  0
   -9.1780   -0.8570    0.0000 H   0  0  0  0  0  0  0  0  0  0  0  0
   -5.8740    3.1530    0.0000 H   0  0  0  0  0  0  0  0  0  0  0  0
   -3.3120    2.7250    0.0000 H   0  0  0  0  0  0  0  0  0  0  0  0
   -1.4910   -2.1410    0.0000 H   0  0  0  0  0  0  0  0  0  0  0  0
    0.8250   -4.0490    0.0000 H   0  0  0  0  0  0  0  0  0  0  0  0
    2.5510   -3.2560    0.0000 H   0  0  0  0  0  0  0  0  0  0  0  0
    5.5340    0.4870    0.0000 H   0  0  0  0  0  0  0  0  0  0  0  0
    5.3300    2.5990    0.0000 H   0  0  0  0  0  0  0  0  0  0  0  0
    3.4220    0.2830    0.0000 H   0  0  0  0  0  0  0  0  0  0  0  0
    4.2240   -0.5510    0.0000 H   0  0  0  0  0  0  0  0  0  0  0  0
    6.1290   -1.2250    0.0000 H   0  0  0  0  0  0  0  0  0  0  0  0
    6.5480   -3.4840    0.0000 H   0  0  0  0  0  0  0  0  0  0  0  0
    5.0120   -4.7970    0.0000 H   0  0  0  0  0  0  0  0  0  0  0  0
    3.1730   -4.0660    0.0000 H   0  0  0  0  0  0  0  0  0  0  0  0
  1  2  1  0  0  0  0
  1 27  1  0  0  0  0
  1 28  1  0  0  0  0
  1 29  1  0  0  0  0
  2  3  1  0  0  0  0
  3  4  2  0  0  0  0
  3 21  1  0  0  0  0
  4  5  1  0  0  0  0
  4 30  1  0  0  0  0
  5  6  1  0  0  0  0
  5 15  2  0  0  0  0
  6  7  1  0  0  0  0
  6 31  1  0  0  0  0
  6 32  1  0  0  0  0
  7  8  2  0  0  0  0
  7 13  1  0  0  0  0
  8  9  1  0  0  0  0
  8 33  1  0  0  0  0
  9 10  2  0  0  0  0
 10 11  1  0  0  0  0
 10 12  1  0  0  0  0
 11 34  1  0  0  0  0
 11 35  1  0  0  0  0
 12 13  2  0  0  0  0
 13 14  1  0  0  0  0
 14 36  1  0  0  0  0
 14 37  1  0  0  0  0
 15 16  1  0  0  0  0
 15 20  1  0  0  0  0
 16 17  2  0  0  0  0
 16 38  1  0  0  0  0
 17 18  1  0  0  0  0
 17 39  1  0  0  0  0
 18 19  1  0  0  0  0
 18 24  1  0  0  0  0
 18 40  1  6  0  0  0
 19 20  1  0  0  0  0
 20 21  2  0  0  0  0
 21 22  1  0  0  0  0
 22 23  1  0  0  0  0
 23 41  1  0  0  0  0
 23 42  1  0  0  0  0
 23 43  1  0  0  0  0
 24 25  1  0  0  0  0
 24 26  1  0  0  0  0
 24 44  1  0  0  0  0
 25 26  1  0  0  0  0
 25 45  1  0  0  0  0
 25 46  1  0  0  0  0
 26 47  1  0  0  0  0
 26 48  1  0  0  0  0
M  END
$$$$
