2D_structures\o73_MMV1580843_2D.pdb
 OpenBabel02282413353D

 53 56  0  0  0  0  0  0  0  0999 V2000
    6.9690    1.0040    0.0000 C   0  0  0  0  0  0  0  0  0  0  0  0
    5.8190    0.0410    0.0000 Si  0  0  0  0  0  0  0  0  0  0  0  0
    6.9660   -0.9250    0.0000 C   0  0  0  0  0  0  0  0  0  0  0  0
    5.0670   -1.2570    0.0000 C   0  0  0  0  0  0  0  0  0  0  0  0
    3.5670   -1.2550    0.0000 C   0  0  0  0  0  0  0  0  0  0  0  0
    2.8190    0.0460    0.0000 N   0  0  0  0  0  0  0  0  0  0  0  0
    1.3190    0.0480    0.0000 C   0  0  0  0  0  0  0  0  0  0  0  0
   -0.1810    0.0500    0.0000 C   0  0  0  0  0  0  0  0  0  0  0  0
   -1.0650   -1.1620    0.0000 C   0  0  0  0  0  0  0  0  0  0  0  0
   -2.4910   -0.6960    0.0000 C   0  0  0  0  0  0  0  0  0  0  0  0
   -3.7060   -1.5760    0.0000 C   0  0  0  0  0  0  0  0  0  0  0  0
   -5.0750   -0.9640    0.0000 C   0  0  0  0  0  0  0  0  0  0  0  0
   -6.2900   -1.8440    0.0000 C   0  0  0  0  0  0  0  0  0  0  0  0
   -6.1350   -3.3360    0.0000 C   0  0  0  0  0  0  0  0  0  0  0  0
   -7.3500   -4.2160    0.0000 Cl  0  0  0  0  0  0  0  0  0  0  0  0
   -4.7660   -3.9480    0.0000 C   0  0  0  0  0  0  0  0  0  0  0  0
   -3.5510   -3.0680    0.0000 C   0  0  0  0  0  0  0  0  0  0  0  0
   -2.4880    0.8040    0.0000 N   0  0  0  0  0  0  0  0  0  0  0  0
   -1.0610    1.2650    0.0000 N   0  0  0  0  0  0  0  0  0  0  0  0
   -3.7010    1.6870    0.0000 C   0  0  0  0  0  0  0  0  0  0  0  0
   -3.5420    3.1790    0.0000 C   0  0  0  0  0  0  0  0  0  0  0  0
   -4.7540    4.0620    0.0000 C   0  0  0  0  0  0  0  0  0  0  0  0
   -6.1250    3.4540    0.0000 C   0  0  0  0  0  0  0  0  0  0  0  0
   -7.3370    4.3370    0.0000 Cl  0  0  0  0  0  0  0  0  0  0  0  0
   -6.2840    1.9620    0.0000 C   0  0  0  0  0  0  0  0  0  0  0  0
   -5.0720    1.0790    0.0000 C   0  0  0  0  0  0  0  0  0  0  0  0
    3.5710    1.3440    0.0000 C   0  0  0  0  0  0  0  0  0  0  0  0
    5.0710    1.3410    0.0000 C   0  0  0  0  0  0  0  0  0  0  0  0
    8.1200    1.9660    0.0000 H   0  0  0  0  0  0  0  0  0  0  0  0
    6.1540    2.2630    0.0000 H   0  0  0  0  0  0  0  0  0  0  0  0
    7.5510    0.4590    0.0000 H   0  0  0  0  0  0  0  0  0  0  0  0
    8.1140   -1.8910    0.0000 H   0  0  0  0  0  0  0  0  0  0  0  0
    6.1470   -2.1820    0.0000 H   0  0  0  0  0  0  0  0  0  0  0  0
    7.5500   -0.3820    0.0000 H   0  0  0  0  0  0  0  0  0  0  0  0
    6.4020   -1.9400    0.0000 H   0  0  0  0  0  0  0  0  0  0  0  0
    4.8040   -2.7340    0.0000 H   0  0  0  0  0  0  0  0  0  0  0  0
    3.8250   -2.7320    0.0000 H   0  0  0  0  0  0  0  0  0  0  0  0
    2.2290   -1.9340    0.0000 H   0  0  0  0  0  0  0  0  0  0  0  0
    1.1340   -1.4410    0.0000 H   0  0  0  0  0  0  0  0  0  0  0  0
    1.1380    1.5370    0.0000 H   0  0  0  0  0  0  0  0  0  0  0  0
   -0.6030   -2.5890    0.0000 H   0  0  0  0  0  0  0  0  0  0  0  0
   -5.5860    0.4460    0.0000 H   0  0  0  0  0  0  0  0  0  0  0  0
   -7.6590   -1.2320    0.0000 H   0  0  0  0  0  0  0  0  0  0  0  0
   -4.6110   -5.4400    0.0000 H   0  0  0  0  0  0  0  0  0  0  0  0
   -2.1820   -3.6810    0.0000 H   0  0  0  0  0  0  0  0  0  0  0  0
   -2.1700    3.7870    0.0000 H   0  0  0  0  0  0  0  0  0  0  0  0
   -4.5950    5.5540    0.0000 H   0  0  0  0  0  0  0  0  0  0  0  0
   -7.6550    1.3540    0.0000 H   0  0  0  0  0  0  0  0  0  0  0  0
   -5.5870   -0.3300    0.0000 H   0  0  0  0  0  0  0  0  0  0  0  0
    2.2350    2.0270    0.0000 H   0  0  0  0  0  0  0  0  0  0  0  0
    3.8330    2.8200    0.0000 H   0  0  0  0  0  0  0  0  0  0  0  0
    4.8120    2.8190    0.0000 H   0  0  0  0  0  0  0  0  0  0  0  0
    6.4080    2.0200    0.0000 H   0  0  0  0  0  0  0  0  0  0  0  0
  1  2  1  0  0  0  0
  1 29  1  0  0  0  0
  1 30  1  0  0  0  0
  1 31  1  0  0  0  0
  2  3  1  0  0  0  0
  2  4  1  0  0  0  0
  2 28  1  0  0  0  0
  3 32  1  0  0  0  0
  3 33  1  0  0  0  0
  3 34  1  0  0  0  0
  4  5  1  0  0  0  0
  4 35  1  0  0  0  0
  4 36  1  0  0  0  0
  5  6  1  0  0  0  0
  5 37  1  0  0  0  0
  5 38  1  0  0  0  0
  6  7  1  0  0  0  0
  6 27  1  0  0  0  0
  7  8  1  0  0  0  0
  7 39  1  0  0  0  0
  7 40  1  0  0  0  0
  8  9  1  0  0  0  0
  8 19  2  0  0  0  0
  9 10  2  0  0  0  0
  9 41  1  0  0  0  0
 10 11  1  0  0  0  0
 10 18  1  0  0  0  0
 11 12  2  0  0  0  0
 11 17  1  0  0  0  0
 12 13  1  0  0  0  0
 12 42  1  0  0  0  0
 13 14  2  0  0  0  0
 13 43  1  0  0  0  0
 14 15  1  0  0  0  0
 14 16  1  0  0  0  0
 16 17  2  0  0  0  0
 16 44  1  0  0  0  0
 17 45  1  0  0  0  0
 18 19  1  0  0  0  0
 18 20  1  0  0  0  0
 20 21  2  0  0  0  0
 20 26  1  0  0  0  0
 21 22  1  0  0  0  0
 21 46  1  0  0  0  0
 22 23  2  0  0  0  0
 22 47  1  0  0  0  0
 23 24  1  0  0  0  0
 23 25  1  0  0  0  0
 25 26  2  0  0  0  0
 25 48  1  0  0  0  0
 26 49  1  0  0  0  0
 27 28  1  0  0  0  0
 27 50  1  0  0  0  0
 27 51  1  0  0  0  0
 28 52  1  0  0  0  0
 28 53  1  0  0  0  0
M  END
$$$$
