2D_structures\o79_MMV1782209_2D.pdb
 OpenBabel02282413353D

 70 73  0  0  0  0  0  0  0  0999 V2000
   -1.3530   -2.5670    0.0000 C   0  0  0  0  0  0  0  0  0  0  0  0
   -2.0400   -1.2330    0.0000 O   0  0  0  0  0  0  0  0  0  0  0  0
   -3.5380   -1.1620    0.0000 C   0  0  0  0  0  0  0  0  0  0  0  0
   -4.3490   -2.4240    0.0000 C   0  0  0  0  0  0  0  0  0  0  0  0
   -5.8480   -2.3520    0.0000 C   0  0  0  0  0  0  0  0  0  0  0  0
   -6.5350   -1.0190    0.0000 C   0  0  0  0  0  0  0  0  0  0  0  0
   -5.7240    0.2430    0.0000 C   0  0  0  0  0  0  0  0  0  0  0  0
   -4.2260    0.1710    0.0000 C   0  0  0  0  0  0  0  0  0  0  0  0
   -3.4150    1.4330    0.0000 N   0  0  0  0  0  0  0  0  0  0  0  0
   -1.9160    1.3620    0.0000 C   0  0  0  0  0  0  0  0  0  0  0  0
   -1.2290    0.0280    0.0000 O   0  0  0  0  0  0  0  0  0  0  0  0
   -1.1050    2.6240    0.0000 C   0  0  0  0  0  0  0  0  0  0  0  0
   -1.7930    3.9570    0.0000 O   0  0  0  0  0  0  0  0  0  0  0  0
    0.3930    2.5520    0.0000 C   0  0  0  0  0  0  0  0  0  0  0  0
    1.0800    1.2190    0.0000 C   0  0  0  0  0  0  0  0  0  0  0  0
    2.5780    1.1470    0.0000 C   0  0  0  0  0  0  0  0  0  0  0  0
    3.3890    2.4090    0.0000 C   0  0  0  0  0  0  0  0  0  0  0  0
    4.8880    2.3380    0.0000 O   0  0  0  0  0  0  0  0  0  0  0  0
    5.5750    1.0050    0.0000 C   0  0  0  0  0  0  0  0  0  0  0  0
    6.2620   -0.3290    0.0000 C   0  0  0  0  0  0  0  0  0  0  0  0
    6.9500   -1.6620    0.0000 N   0  0  0  0  0  0  0  0  0  0  0  0
    6.1390   -2.9240    0.0000 C   0  0  0  0  0  0  0  0  0  0  0  0
    6.8260   -4.2570    0.0000 C   0  0  0  0  0  0  0  0  0  0  0  0
    8.3240   -4.3290    0.0000 O   0  0  0  0  0  0  0  0  0  0  0  0
    9.1350   -3.0670    0.0000 C   0  0  0  0  0  0  0  0  0  0  0  0
    8.4480   -1.7340    0.0000 C   0  0  0  0  0  0  0  0  0  0  0  0
    2.7020    3.7430    0.0000 C   0  0  0  0  0  0  0  0  0  0  0  0
    3.5130    5.0040    0.0000 C   0  0  0  0  0  0  0  0  0  0  0  0
    2.8260    6.3380    0.0000 C   0  0  0  0  0  0  0  0  0  0  0  0
    1.3280    6.4090    0.0000 C   0  0  0  0  0  0  0  0  0  0  0  0
    0.5170    5.1470    0.0000 C   0  0  0  0  0  0  0  0  0  0  0  0
    1.2040    3.8140    0.0000 C   0  0  0  0  0  0  0  0  0  0  0  0
   -8.0330   -0.9480    0.0000 C   0  0  0  0  0  0  0  0  0  0  0  0
   -9.5320   -0.8760    0.0000 C   0  0  0  0  0  0  0  0  0  0  0  0
   -7.9620    0.5510    0.0000 C   0  0  0  0  0  0  0  0  0  0  0  0
   -8.1050   -2.4460    0.0000 C   0  0  0  0  0  0  0  0  0  0  0  0
   -0.6660   -3.9000    0.0000 H   0  0  0  0  0  0  0  0  0  0  0  0
   -0.0200   -1.8790    0.0000 H   0  0  0  0  0  0  0  0  0  0  0  0
   -2.6860   -3.2540    0.0000 H   0  0  0  0  0  0  0  0  0  0  0  0
   -3.6620   -3.7570    0.0000 H   0  0  0  0  0  0  0  0  0  0  0  0
   -6.6590   -3.6140    0.0000 H   0  0  0  0  0  0  0  0  0  0  0  0
   -6.1300    1.0300    0.0000 H   0  0  0  0  0  0  0  0  0  0  0  0
   -4.1020    2.7660    0.0000 H   0  0  0  0  0  0  0  0  0  0  0  0
    0.2690   -0.0430    0.0000 H   0  0  0  0  0  0  0  0  0  0  0  0
    3.2660   -0.1860    0.0000 H   0  0  0  0  0  0  0  0  0  0  0  0
    4.2420    0.3170    0.0000 H   0  0  0  0  0  0  0  0  0  0  0  0
    6.9080    1.6920    0.0000 H   0  0  0  0  0  0  0  0  0  0  0  0
    4.8550   -0.8480    0.0000 H   0  0  0  0  0  0  0  0  0  0  0  0
    7.5020    0.5160    0.0000 H   0  0  0  0  0  0  0  0  0  0  0  0
    4.9450   -3.8320    0.0000 H   0  0  0  0  0  0  0  0  0  0  0  0
    4.9210   -2.0480    0.0000 H   0  0  0  0  0  0  0  0  0  0  0  0
    7.0160   -5.7450    0.0000 H   0  0  0  0  0  0  0  0  0  0  0  0
    5.3930   -4.7020    0.0000 H   0  0  0  0  0  0  0  0  0  0  0  0
   10.3290   -2.1580    0.0000 H   0  0  0  0  0  0  0  0  0  0  0  0
   10.2370   -4.0850    0.0000 H   0  0  0  0  0  0  0  0  0  0  0  0
    8.4410   -0.2340    0.0000 H   0  0  0  0  0  0  0  0  0  0  0  0
    9.8800   -1.2880    0.0000 H   0  0  0  0  0  0  0  0  0  0  0  0
    5.0120    4.9330    0.0000 H   0  0  0  0  0  0  0  0  0  0  0  0
    3.6370    7.6000    0.0000 H   0  0  0  0  0  0  0  0  0  0  0  0
    0.6400    7.7420    0.0000 H   0  0  0  0  0  0  0  0  0  0  0  0
   -0.9820    5.2190    0.0000 H   0  0  0  0  0  0  0  0  0  0  0  0
  -11.0300   -0.8050    0.0000 H   0  0  0  0  0  0  0  0  0  0  0  0
   -9.6810   -1.7490    0.0000 H   0  0  0  0  0  0  0  0  0  0  0  0
   -9.5980    0.0070    0.0000 H   0  0  0  0  0  0  0  0  0  0  0  0
   -7.8900    2.0490    0.0000 H   0  0  0  0  0  0  0  0  0  0  0  0
   -8.8350    0.7000    0.0000 H   0  0  0  0  0  0  0  0  0  0  0  0
   -7.0930    0.7240    0.0000 H   0  0  0  0  0  0  0  0  0  0  0  0
   -8.1760   -3.9440    0.0000 H   0  0  0  0  0  0  0  0  0  0  0  0
   -8.9880   -2.5120    0.0000 H   0  0  0  0  0  0  0  0  0  0  0  0
   -6.6680   -2.8780    0.0000 H   0  0  0  0  0  0  0  0  0  0  0  0
  1  2  1  0  0  0  0
  1 37  1  0  0  0  0
  1 38  1  0  0  0  0
  1 39  1  0  0  0  0
  2  3  1  0  0  0  0
  3  4  2  0  0  0  0
  3  8  1  0  0  0  0
  4  5  1  0  0  0  0
  4 40  1  0  0  0  0
  5  6  2  0  0  0  0
  5 41  1  0  0  0  0
  6  7  1  0  0  0  0
  6 33  1  0  0  0  0
  7  8  2  0  0  0  0
  7 42  1  0  0  0  0
  8  9  1  0  0  0  0
  9 10  1  0  0  0  0
  9 43  1  0  0  0  0
 10 11  2  0  0  0  0
 10 12  1  0  0  0  0
 12 13  2  0  0  0  0
 12 14  1  0  0  0  0
 14 15  2  0  0  0  0
 14 32  1  0  0  0  0
 15 16  1  0  0  0  0
 15 44  1  0  0  0  0
 16 17  2  0  0  0  0
 16 45  1  0  0  0  0
 17 18  1  0  0  0  0
 17 27  1  0  0  0  0
 18 19  1  0  0  0  0
 19 20  1  0  0  0  0
 19 46  1  0  0  0  0
 19 47  1  0  0  0  0
 20 21  1  0  0  0  0
 20 48  1  0  0  0  0
 20 49  1  0  0  0  0
 21 22  1  0  0  0  0
 21 26  1  0  0  0  0
 22 23  1  0  0  0  0
 22 50  1  0  0  0  0
 22 51  1  0  0  0  0
 23 24  1  0  0  0  0
 23 52  1  0  0  0  0
 23 53  1  0  0  0  0
 24 25  1  0  0  0  0
 25 26  1  0  0  0  0
 25 54  1  0  0  0  0
 25 55  1  0  0  0  0
 26 56  1  0  0  0  0
 26 57  1  0  0  0  0
 27 28  2  0  0  0  0
 27 32  1  0  0  0  0
 28 29  1  0  0  0  0
 28 58  1  0  0  0  0
 29 30  2  0  0  0  0
 29 59  1  0  0  0  0
 30 31  1  0  0  0  0
 30 60  1  0  0  0  0
 31 32  2  0  0  0  0
 31 61  1  0  0  0  0
 33 34  1  0  0  0  0
 33 35  1  0  0  0  0
 33 36  1  0  0  0  0
 34 62  1  0  0  0  0
 34 63  1  0  0  0  0
 34 64  1  0  0  0  0
 35 65  1  0  0  0  0
 35 66  1  0  0  0  0
 35 67  1  0  0  0  0
 36 68  1  0  0  0  0
 36 69  1  0  0  0  0
 36 70  1  0  0  0  0
M  END
$$$$
