2D_structures\o12_MMV1593539_2D.pdb
 OpenBabel02272408253D

 38 41  0  0  0  0  0  0  0  0999 V2000
   -7.5190    2.5800    0.0000 O   0  5  0  0  0  0  0  0  0  0  0  0
   -7.2000    1.1140    0.0000 N   0  3  0  0  0  0  0  0  0  0  0  0
   -8.3100    0.1050    0.0000 O   0  0  0  0  0  0  0  0  0  0  0  0
   -5.7720    0.6570    0.0000 C   0  0  0  0  0  0  0  0  0  0  0  0
   -4.6620    1.6660    0.0000 C   0  0  0  0  0  0  0  0  0  0  0  0
   -3.2330    1.2100    0.0000 C   0  0  0  0  0  0  0  0  0  0  0  0
   -2.9140   -0.2560    0.0000 C   0  0  0  0  0  0  0  0  0  0  0  0
   -1.6110   -1.0000    0.0000 C   0  0  0  0  0  0  0  0  0  0  0  0
   -0.2440   -0.3830    0.0000 C   0  0  0  0  0  0  0  0  0  0  0  0
    1.1230    0.2340    0.0000 C   0  0  0  0  0  0  0  0  0  0  0  0
    2.4910    0.8500    0.0000 C   0  0  0  0  0  0  0  0  0  0  0  0
    2.7960    2.3190    0.0000 C   0  0  0  0  0  0  0  0  0  0  0  0
    4.2870    2.4830    0.0000 N   0  0  0  0  0  0  0  0  0  0  0  0
    4.9030    1.1160    0.0000 C   0  0  0  0  0  0  0  0  0  0  0  0
    6.3320    0.6590    0.0000 C   0  0  0  0  0  0  0  0  0  0  0  0
    6.6510   -0.8070    0.0000 C   0  0  0  0  0  0  0  0  0  0  0  0
    5.5410   -1.8160    0.0000 C   0  0  0  0  0  0  0  0  0  0  0  0
    4.1120   -1.3590    0.0000 C   0  0  0  0  0  0  0  0  0  0  0  0
    3.7930    0.1070    0.0000 C   0  0  0  0  0  0  0  0  0  0  0  0
   -1.9160   -2.4680    0.0000 C   0  0  0  0  0  0  0  0  0  0  0  0
   -3.4070   -2.6320    0.0000 N   0  0  0  0  0  0  0  0  0  0  0  0
   -4.0240   -1.2650    0.0000 C   0  0  0  0  0  0  0  0  0  0  0  0
   -5.4530   -0.8080    0.0000 C   0  0  0  0  0  0  0  0  0  0  0  0
   -4.9810    3.1320    0.0000 H   0  0  0  0  0  0  0  0  0  0  0  0
   -2.1230    2.2190    0.0000 H   0  0  0  0  0  0  0  0  0  0  0  0
    0.3730   -1.7500    0.0000 H   0  0  0  0  0  0  0  0  0  0  0  0
   -0.8610    0.9840    0.0000 H   0  0  0  0  0  0  0  0  0  0  0  0
    1.7400   -1.1340    0.0000 H   0  0  0  0  0  0  0  0  0  0  0  0
    0.5070    1.6010    0.0000 H   0  0  0  0  0  0  0  0  0  0  0  0
    1.7860    3.4290    0.0000 H   0  0  0  0  0  0  0  0  0  0  0  0
    5.0300    3.7860    0.0000 H   0  0  0  0  0  0  0  0  0  0  0  0
    7.4420    1.6680    0.0000 H   0  0  0  0  0  0  0  0  0  0  0  0
    8.0800   -1.2630    0.0000 H   0  0  0  0  0  0  0  0  0  0  0  0
    5.8600   -3.2810    0.0000 H   0  0  0  0  0  0  0  0  0  0  0  0
    3.0020   -2.3680    0.0000 H   0  0  0  0  0  0  0  0  0  0  0  0
   -0.9070   -3.5780    0.0000 H   0  0  0  0  0  0  0  0  0  0  0  0
   -4.1510   -3.9350    0.0000 H   0  0  0  0  0  0  0  0  0  0  0  0
   -6.5630   -1.8170    0.0000 H   0  0  0  0  0  0  0  0  0  0  0  0
  1  2  1  0  0  0  0
  2  3  2  0  0  0  0
  2  4  1  0  0  0  0
  4  5  2  0  0  0  0
  4 23  1  0  0  0  0
  5  6  1  0  0  0  0
  5 24  1  0  0  0  0
  6  7  2  0  0  0  0
  6 25  1  0  0  0  0
  7  8  1  0  0  0  0
  7 22  1  0  0  0  0
  8  9  1  0  0  0  0
  8 20  2  0  0  0  0
  9 10  1  0  0  0  0
  9 26  1  0  0  0  0
  9 27  1  0  0  0  0
 10 11  1  0  0  0  0
 10 28  1  0  0  0  0
 10 29  1  0  0  0  0
 11 12  2  0  0  0  0
 11 19  1  0  0  0  0
 12 13  1  0  0  0  0
 12 30  1  0  0  0  0
 13 14  1  0  0  0  0
 13 31  1  0  0  0  0
 14 15  2  0  0  0  0
 14 19  1  0  0  0  0
 15 16  1  0  0  0  0
 15 32  1  0  0  0  0
 16 17  2  0  0  0  0
 16 33  1  0  0  0  0
 17 18  1  0  0  0  0
 17 34  1  0  0  0  0
 18 19  2  0  0  0  0
 18 35  1  0  0  0  0
 20 21  1  0  0  0  0
 20 36  1  0  0  0  0
 21 22  1  0  0  0  0
 21 37  1  0  0  0  0
 22 23  2  0  0  0  0
 23 38  1  0  0  0  0
M  CHG  2   1  -1   2   1
M  END
$$$$
