2D_structures\o14_MMV1582487_2D.pdb
 OpenBabel02272408253D

 47 46  0  0  1  0  0  0  0  0999 V2000
    8.5840   -0.7290    0.0000 C   0  0  0  0  0  0  0  0  0  0  0  0
    7.1220   -0.3920    0.0000 C   0  0  0  0  0  0  0  0  0  0  0  0
    5.6600   -0.0560    0.0000 C   0  0  0  0  0  0  0  0  0  0  0  0
    4.1980    0.2800    0.0000 C   0  0  0  0  0  0  0  0  0  0  0  0
    2.7370    0.6170    0.0000 C   0  0  0  0  0  0  0  0  0  0  0  0
    1.2750    0.9530    0.0000 C   0  0  0  0  0  0  0  0  0  0  0  0
   -0.1870    1.2900    0.0000 C   0  0  0  0  0  0  0  0  0  0  0  0
   -1.6490    1.6260    0.0000 C   0  0  0  0  0  0  0  0  0  0  0  0
   -3.1110    1.9620    0.0000 C   0  0  1  0  0  0  0  0  0  0  0  0
   -3.4470    0.5000    0.0000 C   0  0  0  0  0  0  0  0  0  0  0  0
   -3.7830   -0.9610    0.0000 P   0  0  1  0  0  0  0  0  0  0  0  0
   -2.9910   -1.0440    0.0000 O   0  0  0  0  0  0  0  0  0  0  0  0
   -5.2450   -0.6250    0.0000 O   0  0  0  0  0  0  0  0  0  0  0  0
   -4.1200   -2.4230    0.0000 C   0  0  1  0  0  0  0  0  0  0  0  0
   -2.6580   -2.7600    0.0000 C   0  0  0  0  0  0  0  0  0  0  0  0
   -5.5820   -2.0870    0.0000 N   0  0  0  0  0  0  0  0  0  0  0  0
   -4.5720    2.2990    0.0000 C   0  0  0  0  0  0  0  0  0  0  0  0
   -5.7210    1.3340    0.0000 O   0  0  0  0  0  0  0  0  0  0  0  0
   -5.0120    3.7330    0.0000 O   0  0  0  0  0  0  0  0  0  0  0  0
   10.0450   -1.0650    0.0000 H   0  0  0  0  0  0  0  0  0  0  0  0
    8.2470   -2.1900    0.0000 H   0  0  0  0  0  0  0  0  0  0  0  0
    8.9200    0.7330    0.0000 H   0  0  0  0  0  0  0  0  0  0  0  0
    6.7860   -1.8540    0.0000 H   0  0  0  0  0  0  0  0  0  0  0  0
    7.4580    1.0690    0.0000 H   0  0  0  0  0  0  0  0  0  0  0  0
    5.9960    1.4060    0.0000 H   0  0  0  0  0  0  0  0  0  0  0  0
    5.3240   -1.5180    0.0000 H   0  0  0  0  0  0  0  0  0  0  0  0
    3.8620   -1.1810    0.0000 H   0  0  0  0  0  0  0  0  0  0  0  0
    4.5350    1.7420    0.0000 H   0  0  0  0  0  0  0  0  0  0  0  0
    3.0730    2.0790    0.0000 H   0  0  0  0  0  0  0  0  0  0  0  0
    2.4000   -0.8450    0.0000 H   0  0  0  0  0  0  0  0  0  0  0  0
    0.9380   -0.5090    0.0000 H   0  0  0  0  0  0  0  0  0  0  0  0
    1.6110    2.4150    0.0000 H   0  0  0  0  0  0  0  0  0  0  0  0
    0.1490    2.7510    0.0000 H   0  0  0  0  0  0  0  0  0  0  0  0
   -0.5230   -0.1720    0.0000 H   0  0  0  0  0  0  0  0  0  0  0  0
   -1.7410    0.7450    0.0000 H   0  0  0  0  0  0  0  0  0  0  0  0
   -1.3130    3.0880    0.0000 H   0  0  0  0  0  0  0  0  0  0  0  0
   -2.7740    3.4240    0.0000 H   0  0  0  0  0  0  0  0  0  0  0  0
   -4.9390    0.6560    0.0000 H   0  0  0  0  0  0  0  0  0  0  0  0
   -2.6150    0.1980    0.0000 H   0  0  0  0  0  0  0  0  0  0  0  0
   -6.5030   -1.4430    0.0000 H   0  0  0  0  0  0  0  0  0  0  0  0
   -4.4560   -3.8850    0.0000 H   0  0  0  0  0  0  0  0  0  0  0  0
   -1.1960   -3.0960    0.0000 H   0  0  0  0  0  0  0  0  0  0  0  0
   -2.9940   -4.2210    0.0000 H   0  0  0  0  0  0  0  0  0  0  0  0
   -2.3560   -1.9270    0.0000 H   0  0  0  0  0  0  0  0  0  0  0  0
   -6.6040   -3.1850    0.0000 H   0  0  0  0  0  0  0  0  0  0  0  0
   -6.3550   -0.8020    0.0000 H   0  0  0  0  0  0  0  0  0  0  0  0
   -6.4740    4.0690    0.0000 H   0  0  0  0  0  0  0  0  0  0  0  0
  1  2  1  0  0  0  0
  1 20  1  0  0  0  0
  1 21  1  0  0  0  0
  1 22  1  0  0  0  0
  2  3  1  0  0  0  0
  2 23  1  0  0  0  0
  2 24  1  0  0  0  0
  3  4  1  0  0  0  0
  3 25  1  0  0  0  0
  3 26  1  0  0  0  0
  4  5  1  0  0  0  0
  4 27  1  0  0  0  0
  4 28  1  0  0  0  0
  5  6  1  0  0  0  0
  5 29  1  0  0  0  0
  5 30  1  0  0  0  0
  6  7  1  0  0  0  0
  6 31  1  0  0  0  0
  6 32  1  0  0  0  0
  7  8  1  0  0  0  0
  7 33  1  0  0  0  0
  7 34  1  0  0  0  0
  8  9  1  0  0  0  0
  8 35  1  0  0  0  0
  8 36  1  0  0  0  0
  9 10  1  0  0  0  0
  9 17  1  0  0  0  0
  9 37  1  6  0  0  0
 10 11  1  0  0  0  0
 10 38  1  0  0  0  0
 10 39  1  0  0  0  0
 11 12  2  1  0  0  0
 11 13  1  0  0  0  0
 11 14  1  0  0  0  0
 13 40  1  0  0  0  0
 14 15  1  0  0  0  0
 14 16  1  0  0  0  0
 14 41  1  6  0  0  0
 15 42  1  0  0  0  0
 15 43  1  0  0  0  0
 15 44  1  0  0  0  0
 16 45  1  0  0  0  0
 16 46  1  0  0  0  0
 17 18  2  0  0  0  0
 17 19  1  0  0  0  0
 19 47  1  0  0  0  0
M  END
$$$$
