2D_structures\o15_MMV021759_2D.pdb
 OpenBabel02272408253D

 31 33  0  0  0  0  0  0  0  0999 V2000
    6.0710   -0.7990    0.0000 N   0  0  0  0  0  0  0  0  0  0  0  0
    4.5950   -0.5300    0.0000 C   0  0  0  0  0  0  0  0  0  0  0  0
    3.6250   -1.6730    0.0000 N   0  0  0  0  0  0  0  0  0  0  0  0
    2.1490   -1.4050    0.0000 C   0  0  0  0  0  0  0  0  0  0  0  0
    1.1780   -2.5480    0.0000 N   0  0  0  0  0  0  0  0  0  0  0  0
    1.6440    0.0080    0.0000 C   0  0  0  0  0  0  0  0  0  0  0  0
    0.1680    0.2760    0.0000 C   0  0  0  0  0  0  0  0  0  0  0  0
   -0.8020   -0.8670    0.0000 S   0  0  0  0  0  0  0  0  0  0  0  0
   -2.2780   -0.5980    0.0000 C   0  0  0  0  0  0  0  0  0  0  0  0
   -2.7830    0.8140    0.0000 C   0  0  0  0  0  0  0  0  0  0  0  0
   -4.2590    1.0830    0.0000 C   0  0  0  0  0  0  0  0  0  0  0  0
   -5.2300   -0.0610    0.0000 C   0  0  0  0  0  0  0  0  0  0  0  0
   -4.7250   -1.4730    0.0000 C   0  0  0  0  0  0  0  0  0  0  0  0
   -3.2490   -1.7420    0.0000 C   0  0  0  0  0  0  0  0  0  0  0  0
   -0.3370    1.6890    0.0000 C   0  0  0  0  0  0  0  0  0  0  0  0
    0.6340    2.8330    0.0000 C   0  0  0  0  0  0  0  0  0  0  0  0
    2.1090    2.5640    0.0000 C   0  0  0  0  0  0  0  0  0  0  0  0
    2.6150    1.1510    0.0000 C   0  0  0  0  0  0  0  0  0  0  0  0
    4.0900    0.8830    0.0000 N   0  0  0  0  0  0  0  0  0  0  0  0
    6.5760   -2.2110    0.0000 H   0  0  0  0  0  0  0  0  0  0  0  0
    7.0420    0.3450    0.0000 H   0  0  0  0  0  0  0  0  0  0  0  0
    1.6830   -3.9610    0.0000 H   0  0  0  0  0  0  0  0  0  0  0  0
   -0.2970   -2.2800    0.0000 H   0  0  0  0  0  0  0  0  0  0  0  0
   -2.2430    1.6360    0.0000 H   0  0  0  0  0  0  0  0  0  0  0  0
   -4.7640    2.4950    0.0000 H   0  0  0  0  0  0  0  0  0  0  0  0
   -6.7050    0.2080    0.0000 H   0  0  0  0  0  0  0  0  0  0  0  0
   -5.6950   -2.6170    0.0000 H   0  0  0  0  0  0  0  0  0  0  0  0
   -2.7440   -3.1540    0.0000 H   0  0  0  0  0  0  0  0  0  0  0  0
   -1.2760    1.9820    0.0000 H   0  0  0  0  0  0  0  0  0  0  0  0
    0.1290    4.2450    0.0000 H   0  0  0  0  0  0  0  0  0  0  0  0
    3.0800    3.7070    0.0000 H   0  0  0  0  0  0  0  0  0  0  0  0
  1  2  1  0  0  0  0
  1 20  1  0  0  0  0
  1 21  1  0  0  0  0
  2  3  2  0  0  0  0
  2 19  1  0  0  0  0
  3  4  1  0  0  0  0
  4  5  1  0  0  0  0
  4  6  2  0  0  0  0
  5 22  1  0  0  0  0
  5 23  1  0  0  0  0
  6  7  1  0  0  0  0
  6 18  1  0  0  0  0
  7  8  1  0  0  0  0
  7 15  2  0  0  0  0
  8  9  1  0  0  0  0
  9 10  2  0  0  0  0
  9 14  1  0  0  0  0
 10 11  1  0  0  0  0
 10 24  1  0  0  0  0
 11 12  2  0  0  0  0
 11 25  1  0  0  0  0
 12 13  1  0  0  0  0
 12 26  1  0  0  0  0
 13 14  2  0  0  0  0
 13 27  1  0  0  0  0
 14 28  1  0  0  0  0
 15 16  1  0  0  0  0
 15 29  1  0  0  0  0
 16 17  2  0  0  0  0
 16 30  1  0  0  0  0
 17 18  1  0  0  0  0
 17 31  1  0  0  0  0
 18 19  2  0  0  0  0
M  END
$$$$
