2D_structures\o16_MMV1581555_2D.pdb
 OpenBabel02272408253D

 43 46  0  0  0  0  0  0  0  0999 V2000
    7.1010   -1.4390    0.0000 N   0  0  0  0  0  0  0  0  0  0  0  0
    5.6050   -1.5510    0.0000 C   0  0  0  0  0  0  0  0  0  0  0  0
    4.9540   -2.9020    0.0000 C   0  0  0  0  0  0  0  0  0  0  0  0
    3.4590   -3.0140    0.0000 C   0  0  0  0  0  0  0  0  0  0  0  0
    2.6130   -1.7750    0.0000 C   0  0  0  0  0  0  0  0  0  0  0  0
    3.2640   -0.4240    0.0000 C   0  0  0  0  0  0  0  0  0  0  0  0
    4.7600   -0.3110    0.0000 C   0  0  0  0  0  0  0  0  0  0  0  0
    2.4190    0.8160    0.0000 C   0  0  0  0  0  0  0  0  0  0  0  0
    3.0700    2.1670    0.0000 N   0  0  0  0  0  4  0  0  0  0  0  0
    2.2250    3.4060    0.0000 C   0  0  0  0  0  0  0  0  0  0  0  0
    2.8760    4.7580    0.0000 N   0  0  0  0  0  0  0  0  0  0  0  0
    0.7290    3.2940    0.0000 N   0  0  0  0  0  0  0  0  0  0  0  0
    0.0780    1.9430    0.0000 C   0  0  0  0  0  0  0  0  0  0  0  0
   -1.4180    1.8310    0.0000 N   0  0  0  0  0  0  0  0  0  0  0  0
   -2.0680    0.4790    0.0000 C   0  0  0  0  0  0  0  0  0  0  0  0
   -2.4240   -0.9780    0.0000 C   0  0  0  0  0  0  0  0  0  0  0  0
   -3.9200   -1.0900    0.0000 C   0  0  0  0  0  0  0  0  0  0  0  0
   -4.8370   -2.2770    0.0000 C   0  0  0  0  0  0  0  0  0  0  0  0
   -6.3240   -2.0760    0.0000 C   0  0  0  0  0  0  0  0  0  0  0  0
   -6.8920   -0.6880    0.0000 C   0  0  0  0  0  0  0  0  0  0  0  0
   -5.9750    0.4990    0.0000 C   0  0  0  0  0  0  0  0  0  0  0  0
   -4.4890    0.2980    0.0000 C   0  0  0  0  0  0  0  0  0  0  0  0
   -3.3440    1.2680    0.0000 C   0  0  0  0  0  0  0  0  0  0  0  0
    0.9230    0.7030    0.0000 N   0  0  0  0  0  0  0  0  0  0  0  0
    7.9460   -2.6780    0.0000 H   0  0  0  0  0  0  0  0  0  0  0  0
    7.7520   -0.0870    0.0000 H   0  0  0  0  0  0  0  0  0  0  0  0
    5.7990   -4.1420    0.0000 H   0  0  0  0  0  0  0  0  0  0  0  0
    2.8080   -4.3660    0.0000 H   0  0  0  0  0  0  0  0  0  0  0  0
    1.1180   -1.8870    0.0000 H   0  0  0  0  0  0  0  0  0  0  0  0
    5.4110    1.0400    0.0000 H   0  0  0  0  0  0  0  0  0  0  0  0
    4.3710    4.8700    0.0000 H   0  0  0  0  0  0  0  0  0  0  0  0
    2.0300    5.9970    0.0000 H   0  0  0  0  0  0  0  0  0  0  0  0
   -1.9750    2.9100    0.0000 H   0  0  0  0  0  0  0  0  0  0  0  0
   -0.6560   -0.0270    0.0000 H   0  0  0  0  0  0  0  0  0  0  0  0
   -0.9370   -1.1790    0.0000 H   0  0  0  0  0  0  0  0  0  0  0  0
   -2.4690   -2.4770    0.0000 H   0  0  0  0  0  0  0  0  0  0  0  0
   -4.2680   -3.6650    0.0000 H   0  0  0  0  0  0  0  0  0  0  0  0
   -7.2410   -3.2620    0.0000 H   0  0  0  0  0  0  0  0  0  0  0  0
   -8.3790   -0.4870    0.0000 H   0  0  0  0  0  0  0  0  0  0  0  0
   -6.5440    1.8870    0.0000 H   0  0  0  0  0  0  0  0  0  0  0  0
   -4.4290    2.3040    0.0000 H   0  0  0  0  0  0  0  0  0  0  0  0
   -2.7240    2.3120    0.0000 H   0  0  0  0  0  0  0  0  0  0  0  0
    0.4960   -0.1841    0.0000 H   0  0  0  0  0  0  0  0  0  0  0  0
  1  2  1  0  0  0  0
  1 25  1  0  0  0  0
  1 26  1  0  0  0  0
  2  3  2  0  0  0  0
  2  7  1  0  0  0  0
  3  4  1  0  0  0  0
  3 27  1  0  0  0  0
  4  5  2  0  0  0  0
  4 28  1  0  0  0  0
  5  6  1  0  0  0  0
  5 29  1  0  0  0  0
  6  7  2  0  0  0  0
  6  8  1  0  0  0  0
  7 30  1  0  0  0  0
  8  9  2  0  0  0  0
  8 24  1  0  0  0  0
  9 10  2  0  0  0  0
 10 11  1  0  0  0  0
 10 12  1  0  0  0  0
 11 31  1  0  0  0  0
 11 32  1  0  0  0  0
 12 13  2  0  0  0  0
 13 14  1  0  0  0  0
 13 24  1  0  0  0  0
 14 15  1  0  0  0  0
 14 33  1  0  0  0  0
 15 16  1  0  0  0  0
 15 23  1  0  0  0  0
 15 34  1  0  0  0  0
 16 17  1  0  0  0  0
 16 35  1  0  0  0  0
 16 36  1  0  0  0  0
 17 18  2  0  0  0  0
 17 22  1  0  0  0  0
 18 19  1  0  0  0  0
 18 37  1  0  0  0  0
 19 20  2  0  0  0  0
 19 38  1  0  0  0  0
 20 21  1  0  0  0  0
 20 39  1  0  0  0  0
 21 22  2  0  0  0  0
 21 40  1  0  0  0  0
 22 23  1  0  0  0  0
 23 41  1  0  0  0  0
 23 42  1  0  0  0  0
 24 43  1  0  0  0  0
M  END
$$$$
