2D_structures\o1_MMV1483032_2D.pdb
 OpenBabel02272408253D

 34 36  0  0  1  0  0  0  0  0999 V2000
    7.1790    0.2680    0.0000 C   0  0  0  0  0  0  0  0  0  0  0  0
    6.0230    1.2230    0.0000 O   0  0  0  0  0  0  0  0  0  0  0  0
    4.6170    0.6990    0.0000 C   0  0  0  0  0  0  0  0  0  0  0  0
    4.3680   -0.7800    0.0000 C   0  0  0  0  0  0  0  0  0  0  0  0
    2.9630   -1.3040    0.0000 C   0  0  0  0  0  0  0  0  0  0  0  0
    1.8060   -0.3490    0.0000 C   0  0  0  0  0  0  0  0  0  0  0  0
    0.4010   -0.8730    0.0000 N   0  0  0  0  0  0  0  0  0  0  0  0
   -0.7560    0.0820    0.0000 C   0  0  0  0  0  0  0  0  0  0  0  0
   -0.5070    1.5610    0.0000 O   0  0  0  0  0  0  0  0  0  0  0  0
   -2.1610   -0.4430    0.0000 C   0  0  0  0  0  0  0  0  0  0  0  0
   -3.5670   -0.9670    0.0000 C   0  0  1  0  0  0  0  0  0  0  0  0
   -4.8320   -1.7720    0.0000 S   0  0  0  0  0  0  0  0  0  0  0  0
   -5.9890   -0.8170    0.0000 C   0  0  0  0  0  0  0  0  0  0  0  0
   -7.4860   -0.7240    0.0000 N   0  0  0  0  0  4  0  0  0  0  0  0
   -7.8610    0.7290    0.0000 C   0  0  0  0  0  0  0  0  0  0  0  0
   -6.5950    1.5340    0.0000 N   0  0  0  0  0  0  0  0  0  0  0  0
   -5.4380    0.5790    0.0000 N   0  0  0  0  0  0  0  0  0  0  0  0
   -3.9410    0.4860    0.0000 C   0  0  0  0  0  0  0  0  0  0  0  0
   -3.1340    1.7500    0.0000 O   0  0  0  0  0  0  0  0  0  0  0  0
    2.0550    1.1300    0.0000 C   0  0  0  0  0  0  0  0  0  0  0  0
    3.4610    1.6540    0.0000 C   0  0  0  0  0  0  0  0  0  0  0  0
    8.3360   -0.6870    0.0000 H   0  0  0  0  0  0  0  0  0  0  0  0
    8.1340    1.4250    0.0000 H   0  0  0  0  0  0  0  0  0  0  0  0
    6.2240   -0.8880    0.0000 H   0  0  0  0  0  0  0  0  0  0  0  0
    5.5250   -1.7350    0.0000 H   0  0  0  0  0  0  0  0  0  0  0  0
    2.7140   -2.7840    0.0000 H   0  0  0  0  0  0  0  0  0  0  0  0
    0.1520   -2.3530    0.0000 H   0  0  0  0  0  0  0  0  0  0  0  0
   -2.5100    1.0160    0.0000 H   0  0  0  0  0  0  0  0  0  0  0  0
   -1.6370   -1.8480    0.0000 H   0  0  0  0  0  0  0  0  0  0  0  0
   -2.8980   -2.3100    0.0000 H   0  0  0  0  0  0  0  0  0  0  0  0
   -9.2560    1.2800    0.0000 H   0  0  0  0  0  0  0  0  0  0  0  0
    0.8980    2.0850    0.0000 H   0  0  0  0  0  0  0  0  0  0  0  0
    3.7090    3.1330    0.0000 H   0  0  0  0  0  0  0  0  0  0  0  0
   -6.5342    2.5166    0.0000 H   0  0  0  0  0  0  0  0  0  0  0  0
  1  2  1  0  0  0  0
  1 22  1  0  0  0  0
  1 23  1  0  0  0  0
  1 24  1  0  0  0  0
  2  3  1  0  0  0  0
  3  4  2  0  0  0  0
  3 21  1  0  0  0  0
  4  5  1  0  0  0  0
  4 25  1  0  0  0  0
  5  6  2  0  0  0  0
  5 26  1  0  0  0  0
  6  7  1  0  0  0  0
  6 20  1  0  0  0  0
  7  8  1  0  0  0  0
  7 27  1  0  0  0  0
  8  9  2  0  0  0  0
  8 10  1  0  0  0  0
 10 11  1  0  0  0  0
 10 28  1  0  0  0  0
 10 29  1  0  0  0  0
 11 12  1  0  0  0  0
 11 18  1  0  0  0  0
 11 30  1  6  0  0  0
 12 13  1  0  0  0  0
 13 14  2  0  0  0  0
 13 17  1  0  0  0  0
 14 15  2  0  0  0  0
 15 16  1  0  0  0  0
 15 31  1  0  0  0  0
 16 17  1  0  0  0  0
 16 34  1  0  0  0  0
 17 18  1  0  0  0  0
 18 19  2  0  0  0  0
 20 21  2  0  0  0  0
 20 32  1  0  0  0  0
 21 33  1  0  0  0  0
M  END
$$$$
