2D_structures\o25_MMV1579776_2D.pdb
 OpenBabel02272408253D

 46 48  0  0  0  0  0  0  0  0999 V2000
   -7.7810    0.3570    0.0000 N   0  0  0  0  0  0  0  0  0  0  0  0
   -6.2970    0.5690    0.0000 S   0  0  0  0  0  0  0  0  0  0  0  0
   -6.5090    2.0540    0.0000 O   0  0  0  0  0  0  0  0  0  0  0  0
   -6.0840   -0.9160    0.0000 O   0  0  0  0  0  0  0  0  0  0  0  0
   -4.8120    0.7810    0.0000 C   0  0  0  0  0  0  0  0  0  0  0  0
   -4.2530    2.1730    0.0000 C   0  0  0  0  0  0  0  0  0  0  0  0
   -2.7680    2.3850    0.0000 C   0  0  0  0  0  0  0  0  0  0  0  0
   -1.8420    1.2060    0.0000 C   0  0  0  0  0  0  0  0  0  0  0  0
   -0.3570    1.4180    0.0000 N   0  0  0  0  0  0  0  0  0  0  0  0
    0.5690    0.2380    0.0000 C   0  0  0  0  0  0  0  0  0  0  0  0
    0.1020   -0.4080    0.0000 O   0  0  0  0  0  0  0  0  0  0  0  0
    2.0540    0.4500    0.0000 N   0  0  0  0  0  0  0  0  0  0  0  0
    2.9810   -0.7300    0.0000 C   0  0  0  0  0  0  0  0  0  0  0  0
    1.8010   -1.6560    0.0000 C   0  0  0  0  0  0  0  0  0  0  0  0
    2.0130   -3.1410    0.0000 C   0  0  0  0  0  0  0  0  0  0  0  0
    0.8330   -4.0670    0.0000 C   0  0  0  0  0  0  0  0  0  0  0  0
   -0.5590   -3.5090    0.0000 C   0  0  0  0  0  0  0  0  0  0  0  0
   -0.7710   -2.0240    0.0000 C   0  0  0  0  0  0  0  0  0  0  0  0
    0.4090   -1.0970    0.0000 C   0  0  0  0  0  0  0  0  0  0  0  0
    4.1600    0.1960    0.0000 C   0  0  0  0  0  0  0  0  0  0  0  0
    5.5520   -0.3620    0.0000 C   0  0  0  0  0  0  0  0  0  0  0  0
    6.7320    0.5640    0.0000 C   0  0  0  0  0  0  0  0  0  0  0  0
    6.5200    2.0490    0.0000 C   0  0  0  0  0  0  0  0  0  0  0  0
    5.1280    2.6070    0.0000 C   0  0  0  0  0  0  0  0  0  0  0  0
    3.9480    1.6810    0.0000 C   0  0  0  0  0  0  0  0  0  0  0  0
   -2.4000   -0.1870    0.0000 C   0  0  0  0  0  0  0  0  0  0  0  0
   -3.8850   -0.3990    0.0000 C   0  0  0  0  0  0  0  0  0  0  0  0
   -8.3400   -1.0350    0.0000 H   0  0  0  0  0  0  0  0  0  0  0  0
   -8.7080    1.5370    0.0000 H   0  0  0  0  0  0  0  0  0  0  0  0
   -5.1790    3.3530    0.0000 H   0  0  0  0  0  0  0  0  0  0  0  0
   -2.2090    3.7770    0.0000 H   0  0  0  0  0  0  0  0  0  0  0  0
    0.2020    2.8100    0.0000 H   0  0  0  0  0  0  0  0  0  0  0  0
    2.4390    1.9000    0.0000 H   0  0  0  0  0  0  0  0  0  0  0  0
    3.9070   -1.9100    0.0000 H   0  0  0  0  0  0  0  0  0  0  0  0
    3.4050   -3.7000    0.0000 H   0  0  0  0  0  0  0  0  0  0  0  0
    1.0450   -5.5520    0.0000 H   0  0  0  0  0  0  0  0  0  0  0  0
   -1.7390   -4.4350    0.0000 H   0  0  0  0  0  0  0  0  0  0  0  0
   -2.2210   -1.6390    0.0000 H   0  0  0  0  0  0  0  0  0  0  0  0
   -0.1570    0.2920    0.0000 H   0  0  0  0  0  0  0  0  0  0  0  0
    5.7650   -1.8470    0.0000 H   0  0  0  0  0  0  0  0  0  0  0  0
    8.1240    0.0050    0.0000 H   0  0  0  0  0  0  0  0  0  0  0  0
    7.7000    2.9750    0.0000 H   0  0  0  0  0  0  0  0  0  0  0  0
    4.9160    4.0920    0.0000 H   0  0  0  0  0  0  0  0  0  0  0  0
    2.6350    2.4050    0.0000 H   0  0  0  0  0  0  0  0  0  0  0  0
   -1.6250   -1.4710    0.0000 H   0  0  0  0  0  0  0  0  0  0  0  0
   -4.4440   -1.7910    0.0000 H   0  0  0  0  0  0  0  0  0  0  0  0
  1  2  1  0  0  0  0
  1 28  1  0  0  0  0
  1 29  1  0  0  0  0
  2  3  2  0  0  0  0
  2  4  2  0  0  0  0
  2  5  1  0  0  0  0
  5  6  2  0  0  0  0
  5 27  1  0  0  0  0
  6  7  1  0  0  0  0
  6 30  1  0  0  0  0
  7  8  2  0  0  0  0
  7 31  1  0  0  0  0
  8  9  1  0  0  0  0
  8 26  1  0  0  0  0
  9 10  1  0  0  0  0
  9 32  1  0  0  0  0
 10 11  2  0  0  0  0
 10 12  1  0  0  0  0
 12 13  1  0  0  0  0
 12 33  1  0  0  0  0
 13 14  1  0  0  0  0
 13 20  1  0  0  0  0
 13 34  1  0  0  0  0
 14 15  2  0  0  0  0
 14 19  1  0  0  0  0
 15 16  1  0  0  0  0
 15 35  1  0  0  0  0
 16 17  2  0  0  0  0
 16 36  1  0  0  0  0
 17 18  1  0  0  0  0
 17 37  1  0  0  0  0
 18 19  2  0  0  0  0
 18 38  1  0  0  0  0
 19 39  1  0  0  0  0
 20 21  2  0  0  0  0
 20 25  1  0  0  0  0
 21 22  1  0  0  0  0
 21 40  1  0  0  0  0
 22 23  2  0  0  0  0
 22 41  1  0  0  0  0
 23 24  1  0  0  0  0
 23 42  1  0  0  0  0
 24 25  2  0  0  0  0
 24 43  1  0  0  0  0
 25 44  1  0  0  0  0
 26 27  2  0  0  0  0
 26 45  1  0  0  0  0
 27 46  1  0  0  0  0
M  END
$$$$
