2D_structures\o27_MMV1579354_2D.pdb
 OpenBabel02272408253D

 39 41  0  0  0  0  0  0  0  0999 V2000
   -4.9860   -1.2000    0.0000 C   0  0  0  0  0  0  0  0  0  0  0  0
   -3.5880   -1.7430    0.0000 C   0  0  0  0  0  0  0  0  0  0  0  0
   -3.3590   -3.2250    0.0000 C   0  0  0  0  0  0  0  0  0  0  0  0
   -2.4190   -0.8030    0.0000 N   0  0  0  0  0  0  0  0  0  0  0  0
   -0.9710   -1.1970    0.0000 C   0  0  0  0  0  0  0  0  0  0  0  0
   -0.4390   -2.5990    0.0000 O   0  0  0  0  0  0  0  0  0  0  0  0
   -0.1490    0.0580    0.0000 N   0  0  0  0  0  0  0  0  0  0  0  0
    1.3490    0.1300    0.0000 C   0  0  0  0  0  0  0  0  0  0  0  0
    2.8470    0.2030    0.0000 C   0  0  0  0  0  0  0  0  0  0  0  0
    3.5330    1.5370    0.0000 C   0  0  0  0  0  0  0  0  0  0  0  0
    5.0320    1.6100    0.0000 C   0  0  0  0  0  0  0  0  0  0  0  0
    5.8440    0.3480    0.0000 C   0  0  0  0  0  0  0  0  0  0  0  0
    5.1570   -0.9850    0.0000 C   0  0  0  0  0  0  0  0  0  0  0  0
    3.6590   -1.0580    0.0000 C   0  0  0  0  0  0  0  0  0  0  0  0
    2.9730   -2.3920    0.0000 C   0  0  0  0  0  0  0  0  0  0  0  0
   -1.0890    1.2270    0.0000 C   0  0  0  0  0  0  0  0  0  0  0  0
   -0.8480    2.7080    0.0000 C   0  0  0  0  0  0  0  0  0  0  0  0
   -2.0100    3.6560    0.0000 C   0  0  0  0  0  0  0  0  0  0  0  0
   -3.4130    3.1240    0.0000 C   0  0  0  0  0  0  0  0  0  0  0  0
   -3.6530    1.6440    0.0000 C   0  0  0  0  0  0  0  0  0  0  0  0
   -2.4910    0.6950    0.0000 C   0  0  0  0  0  0  0  0  0  0  0  0
   -6.3840   -0.6570    0.0000 H   0  0  0  0  0  0  0  0  0  0  0  0
   -5.5290   -2.5980    0.0000 H   0  0  0  0  0  0  0  0  0  0  0  0
   -4.4430    0.1990    0.0000 H   0  0  0  0  0  0  0  0  0  0  0  0
   -4.5280   -4.1640    0.0000 H   0  0  0  0  0  0  0  0  0  0  0  0
   -1.9610   -3.7680    0.0000 H   0  0  0  0  0  0  0  0  0  0  0  0
    1.2760    1.6290    0.0000 H   0  0  0  0  0  0  0  0  0  0  0  0
    1.2590   -1.0810    0.0000 H   0  0  0  0  0  0  0  0  0  0  0  0
    2.7210    2.7980    0.0000 H   0  0  0  0  0  0  0  0  0  0  0  0
    5.7180    2.9440    0.0000 H   0  0  0  0  0  0  0  0  0  0  0  0
    7.3420    0.4210    0.0000 H   0  0  0  0  0  0  0  0  0  0  0  0
    5.9700   -2.2470    0.0000 H   0  0  0  0  0  0  0  0  0  0  0  0
    2.2870   -3.7260    0.0000 H   0  0  0  0  0  0  0  0  0  0  0  0
    4.3070   -3.0780    0.0000 H   0  0  0  0  0  0  0  0  0  0  0  0
    1.8330   -1.9720    0.0000 H   0  0  0  0  0  0  0  0  0  0  0  0
    0.5540    3.2400    0.0000 H   0  0  0  0  0  0  0  0  0  0  0  0
   -1.7700    5.1370    0.0000 H   0  0  0  0  0  0  0  0  0  0  0  0
   -4.5750    4.0730    0.0000 H   0  0  0  0  0  0  0  0  0  0  0  0
   -5.0560    1.1120    0.0000 H   0  0  0  0  0  0  0  0  0  0  0  0
  1  2  1  0  0  0  0
  1 22  1  0  0  0  0
  1 23  1  0  0  0  0
  1 24  1  0  0  0  0
  2  3  2  0  0  0  0
  2  4  1  0  0  0  0
  3 25  1  0  0  0  0
  3 26  1  0  0  0  0
  4  5  1  0  0  0  0
  4 21  1  0  0  0  0
  5  6  2  0  0  0  0
  5  7  1  0  0  0  0
  7  8  1  0  0  0  0
  7 16  1  0  0  0  0
  8  9  1  0  0  0  0
  8 27  1  0  0  0  0
  8 28  1  0  0  0  0
  9 10  2  0  0  0  0
  9 14  1  0  0  0  0
 10 11  1  0  0  0  0
 10 29  1  0  0  0  0
 11 12  2  0  0  0  0
 11 30  1  0  0  0  0
 12 13  1  0  0  0  0
 12 31  1  0  0  0  0
 13 14  2  0  0  0  0
 13 32  1  0  0  0  0
 14 15  1  0  0  0  0
 15 33  1  0  0  0  0
 15 34  1  0  0  0  0
 15 35  1  0  0  0  0
 16 17  2  0  0  0  0
 16 21  1  0  0  0  0
 17 18  1  0  0  0  0
 17 36  1  0  0  0  0
 18 19  2  0  0  0  0
 18 37  1  0  0  0  0
 19 20  1  0  0  0  0
 19 38  1  0  0  0  0
 20 21  2  0  0  0  0
 20 39  1  0  0  0  0
M  END
$$$$
