2D_structures\o29_MMV1578890_2D.pdb
 OpenBabel02272408253D

 32 34  0  0  0  0  0  0  0  0999 V2000
   -1.0250   -0.6560    0.0000 O   0  0  0  0  0  0  0  0  0  0  0  0
   -1.3690    0.8040    0.0000 S   0  0  0  0  0  0  0  0  0  0  0  0
   -1.7130    2.2640    0.0000 O   0  0  0  0  0  0  0  0  0  0  0  0
    0.0910    1.1470    0.0000 N   0  0  0  0  0  0  0  0  0  0  0  0
    1.1190    0.0550    0.0000 C   0  0  0  0  0  0  0  0  0  0  0  0
    0.6860   -1.3820    0.0000 C   0  0  0  0  0  0  0  0  0  0  0  0
    1.7140   -2.4740    0.0000 C   0  0  0  0  0  0  0  0  0  0  0  0
    3.1740   -2.1310    0.0000 C   0  0  0  0  0  0  0  0  0  0  0  0
    3.6070   -0.6940    0.0000 C   0  0  0  0  0  0  0  0  0  0  0  0
    5.0670   -0.3510    0.0000 C   0  0  0  0  0  0  0  0  0  0  0  0
    5.4990    1.0860    0.0000 C   0  0  0  0  0  0  0  0  0  0  0  0
    4.4710    2.1780    0.0000 C   0  0  0  0  0  0  0  0  0  0  0  0
    3.0110    1.8350    0.0000 N   0  0  0  0  0  0  0  0  0  0  0  0
    2.5790    0.3980    0.0000 C   0  0  0  0  0  0  0  0  0  0  0  0
   -2.8290    0.4600    0.0000 C   0  0  0  0  0  0  0  0  0  0  0  0
   -3.8570    1.5530    0.0000 C   0  0  0  0  0  0  0  0  0  0  0  0
   -5.3170    1.2090    0.0000 C   0  0  0  0  0  0  0  0  0  0  0  0
   -5.7490   -0.2270    0.0000 C   0  0  0  0  0  0  0  0  0  0  0  0
   -4.7220   -1.3200    0.0000 C   0  0  0  0  0  0  0  0  0  0  0  0
   -3.2620   -0.9760    0.0000 C   0  0  0  0  0  0  0  0  0  0  0  0
    0.5240    2.5840    0.0000 H   0  0  0  0  0  0  0  0  0  0  0  0
   -0.7740   -1.7250    0.0000 H   0  0  0  0  0  0  0  0  0  0  0  0
    1.2810   -3.9110    0.0000 H   0  0  0  0  0  0  0  0  0  0  0  0
    4.2020   -3.2230    0.0000 H   0  0  0  0  0  0  0  0  0  0  0  0
    6.0940   -1.4430    0.0000 H   0  0  0  0  0  0  0  0  0  0  0  0
    6.9590    1.4290    0.0000 H   0  0  0  0  0  0  0  0  0  0  0  0
    4.9040    3.6150    0.0000 H   0  0  0  0  0  0  0  0  0  0  0  0
   -3.4240    2.9890    0.0000 H   0  0  0  0  0  0  0  0  0  0  0  0
   -6.3440    2.3020    0.0000 H   0  0  0  0  0  0  0  0  0  0  0  0
   -7.2090   -0.5710    0.0000 H   0  0  0  0  0  0  0  0  0  0  0  0
   -5.1540   -2.7560    0.0000 H   0  0  0  0  0  0  0  0  0  0  0  0
   -2.2340   -2.0690    0.0000 H   0  0  0  0  0  0  0  0  0  0  0  0
  1  2  2  0  0  0  0
  2  3  2  0  0  0  0
  2  4  1  0  0  0  0
  2 15  1  0  0  0  0
  4  5  1  0  0  0  0
  4 21  1  0  0  0  0
  5  6  2  0  0  0  0
  5 14  1  0  0  0  0
  6  7  1  0  0  0  0
  6 22  1  0  0  0  0
  7  8  2  0  0  0  0
  7 23  1  0  0  0  0
  8  9  1  0  0  0  0
  8 24  1  0  0  0  0
  9 10  2  0  0  0  0
  9 14  1  0  0  0  0
 10 11  1  0  0  0  0
 10 25  1  0  0  0  0
 11 12  2  0  0  0  0
 11 26  1  0  0  0  0
 12 13  1  0  0  0  0
 12 27  1  0  0  0  0
 13 14  2  0  0  0  0
 15 16  2  0  0  0  0
 15 20  1  0  0  0  0
 16 17  1  0  0  0  0
 16 28  1  0  0  0  0
 17 18  2  0  0  0  0
 17 29  1  0  0  0  0
 18 19  1  0  0  0  0
 18 30  1  0  0  0  0
 19 20  2  0  0  0  0
 19 31  1  0  0  0  0
 20 32  1  0  0  0  0
M  END
$$$$
