2D_structures\o30_MMV1578886_2D.pdb
 OpenBabel02272408253D

 37 40  0  0  0  0  0  0  0  0999 V2000
    0.1570    0.8380    0.0000 C   0  0  0  0  0  0  0  0  0  0  0  0
    1.3280    1.7750    0.0000 C   0  0  0  0  0  0  0  0  0  0  0  0
    2.7250    1.2280    0.0000 C   0  0  0  0  0  0  0  0  0  0  0  0
    3.8970    2.1650    0.0000 C   0  0  0  0  0  0  0  0  0  0  0  0
    3.6720    3.6480    0.0000 C   0  0  0  0  0  0  0  0  0  0  0  0
    2.2750    4.1940    0.0000 C   0  0  0  0  0  0  0  0  0  0  0  0
    1.1030    3.2580    0.0000 C   0  0  0  0  0  0  0  0  0  0  0  0
   -1.0150   -0.0990    0.0000 N   0  0  0  0  0  0  0  0  0  0  0  0
   -0.9460   -1.5970    0.0000 C   0  0  0  0  0  0  0  0  0  0  0  0
   -2.3500   -2.1260    0.0000 N   0  0  0  0  0  0  0  0  0  0  0  0
   -3.2860   -0.9540    0.0000 C   0  0  0  0  0  0  0  0  0  0  0  0
   -4.7840   -0.8660    0.0000 C   0  0  0  0  0  0  0  0  0  0  0  0
   -5.4560    0.4750    0.0000 C   0  0  0  0  0  0  0  0  0  0  0  0
   -4.6310    1.7280    0.0000 C   0  0  0  0  0  0  0  0  0  0  0  0
   -3.1340    1.6400    0.0000 C   0  0  0  0  0  0  0  0  0  0  0  0
   -2.4610    0.2990    0.0000 C   0  0  0  0  0  0  0  0  0  0  0  0
    0.3070   -2.4220    0.0000 C   0  0  0  0  0  0  0  0  0  0  0  0
    0.2190   -3.9190    0.0000 C   0  0  0  0  0  0  0  0  0  0  0  0
    1.4720   -4.7440    0.0000 C   0  0  0  0  0  0  0  0  0  0  0  0
    2.8120   -4.0720    0.0000 C   0  0  0  0  0  0  0  0  0  0  0  0
    2.9000   -2.5740    0.0000 C   0  0  0  0  0  0  0  0  0  0  0  0
    1.6480   -1.7490    0.0000 N   0  0  0  0  0  0  0  0  0  0  0  0
   -0.7800    2.0100    0.0000 H   0  0  0  0  0  0  0  0  0  0  0  0
    1.0930   -0.3340    0.0000 H   0  0  0  0  0  0  0  0  0  0  0  0
    2.9510   -0.2550    0.0000 H   0  0  0  0  0  0  0  0  0  0  0  0
    5.2940    1.6180    0.0000 H   0  0  0  0  0  0  0  0  0  0  0  0
    4.8430    4.5840    0.0000 H   0  0  0  0  0  0  0  0  0  0  0  0
    2.0490    5.6770    0.0000 H   0  0  0  0  0  0  0  0  0  0  0  0
   -0.2940    3.8040    0.0000 H   0  0  0  0  0  0  0  0  0  0  0  0
   -5.6090   -2.1190    0.0000 H   0  0  0  0  0  0  0  0  0  0  0  0
   -6.9540    0.5630    0.0000 H   0  0  0  0  0  0  0  0  0  0  0  0
   -5.3040    3.0680    0.0000 H   0  0  0  0  0  0  0  0  0  0  0  0
   -2.3090    2.8920    0.0000 H   0  0  0  0  0  0  0  0  0  0  0  0
   -1.1220   -4.5920    0.0000 H   0  0  0  0  0  0  0  0  0  0  0  0
    1.3840   -6.2420    0.0000 H   0  0  0  0  0  0  0  0  0  0  0  0
    4.0650   -4.8970    0.0000 H   0  0  0  0  0  0  0  0  0  0  0  0
    4.2410   -1.9020    0.0000 H   0  0  0  0  0  0  0  0  0  0  0  0
  1  2  1  0  0  0  0
  1  8  1  0  0  0  0
  1 23  1  0  0  0  0
  1 24  1  0  0  0  0
  2  3  2  0  0  0  0
  2  7  1  0  0  0  0
  3  4  1  0  0  0  0
  3 25  1  0  0  0  0
  4  5  2  0  0  0  0
  4 26  1  0  0  0  0
  5  6  1  0  0  0  0
  5 27  1  0  0  0  0
  6  7  2  0  0  0  0
  6 28  1  0  0  0  0
  7 29  1  0  0  0  0
  8  9  1  0  0  0  0
  8 16  1  0  0  0  0
  9 10  2  0  0  0  0
  9 17  1  0  0  0  0
 10 11  1  0  0  0  0
 11 12  2  0  0  0  0
 11 16  1  0  0  0  0
 12 13  1  0  0  0  0
 12 30  1  0  0  0  0
 13 14  2  0  0  0  0
 13 31  1  0  0  0  0
 14 15  1  0  0  0  0
 14 32  1  0  0  0  0
 15 16  2  0  0  0  0
 15 33  1  0  0  0  0
 17 18  2  0  0  0  0
 17 22  1  0  0  0  0
 18 19  1  0  0  0  0
 18 34  1  0  0  0  0
 19 20  2  0  0  0  0
 19 35  1  0  0  0  0
 20 21  1  0  0  0  0
 20 36  1  0  0  0  0
 21 22  2  0  0  0  0
 21 37  1  0  0  0  0
M  END
$$$$
