2D_structures\o33_MMV687273_2D.pdb
 OpenBabel02272408253D

 62 64  0  0  1  0  0  0  0  0999 V2000
   -9.7600    2.0140    0.0000 C   0  0  0  0  0  0  0  0  0  0  0  0
   -8.3650    1.4630    0.0000 C   0  0  0  0  0  0  0  0  0  0  0  0
   -8.1450   -0.0210    0.0000 C   0  0  0  0  0  0  0  0  0  0  0  0
   -6.7490   -0.5720    0.0000 C   0  0  0  0  0  0  0  0  0  0  0  0
   -5.3540   -1.1230    0.0000 C   0  0  0  0  0  0  0  0  0  0  0  0
   -3.9590   -1.6740    0.0000 C   0  0  0  0  0  0  0  0  0  0  0  0
   -2.7840   -0.7410    0.0000 C   0  0  0  0  0  0  0  0  0  0  0  0
   -1.3890   -1.2920    0.0000 C   0  0  0  0  0  0  0  0  0  0  0  0
    0.0060   -1.8430    0.0000 N   0  0  0  0  0  0  0  0  0  0  0  0
    1.1810   -0.9100    0.0000 C   0  0  0  0  0  0  0  0  0  0  0  0
    2.3550    0.0220    0.0000 C   0  0  0  0  0  0  0  0  0  0  0  0
    3.5300    0.9550    0.0000 N   0  0  0  0  0  0  0  0  0  0  0  0
    4.9250    0.4040    0.0000 C   0  0  1  0  0  0  0  0  0  0  0  0
    5.2260    1.8740    0.0000 C   0  0  1  0  0  0  0  0  0  0  0  0
    3.8030    1.3990    0.0000 C   0  0  0  0  0  0  0  0  0  0  0  0
    3.5020   -0.0710    0.0000 C   0  0  1  0  0  0  0  0  0  0  0  0
    6.7760    0.2310    0.0000 C   0  0  0  0  0  0  0  0  0  0  0  0
    7.7710    1.3530    0.0000 C   0  0  1  0  0  0  0  0  0  0  0  0
    7.4710   -0.1160    0.0000 C   0  0  0  0  0  0  0  0  0  0  0  0
    6.0480   -0.5910    0.0000 C   0  0  1  0  0  0  0  0  0  0  0  0
    4.6250   -1.0660    0.0000 C   0  0  0  0  0  0  0  0  0  0  0  0
    6.6490    2.3480    0.0000 C   0  0  0  0  0  0  0  0  0  0  0  0
   -3.7390   -3.1580    0.0000 C   0  0  0  0  0  0  0  0  0  0  0  0
   -7.1900    2.3960    0.0000 C   0  0  0  0  0  0  0  0  0  0  0  0
   -9.2090    3.4090    0.0000 H   0  0  0  0  0  0  0  0  0  0  0  0
  -10.3110    0.6190    0.0000 H   0  0  0  0  0  0  0  0  0  0  0  0
  -11.1550    2.5650    0.0000 H   0  0  0  0  0  0  0  0  0  0  0  0
   -9.3190   -0.9530    0.0000 H   0  0  0  0  0  0  0  0  0  0  0  0
   -7.3000   -1.9670    0.0000 H   0  0  0  0  0  0  0  0  0  0  0  0
   -6.0320    0.7460    0.0000 H   0  0  0  0  0  0  0  0  0  0  0  0
   -5.9050   -2.5180    0.0000 H   0  0  0  0  0  0  0  0  0  0  0  0
   -4.8030    0.2720    0.0000 H   0  0  0  0  0  0  0  0  0  0  0  0
   -3.0050    0.7430    0.0000 H   0  0  0  0  0  0  0  0  0  0  0  0
   -1.7660   -2.7440    0.0000 H   0  0  0  0  0  0  0  0  0  0  0  0
   -0.8380    0.1030    0.0000 H   0  0  0  0  0  0  0  0  0  0  0  0
    0.2260   -3.3270    0.0000 H   0  0  0  0  0  0  0  0  0  0  0  0
    2.1130   -2.0850    0.0000 H   0  0  0  0  0  0  0  0  0  0  0  0
    0.2480    0.2640    0.0000 H   0  0  0  0  0  0  0  0  0  0  0  0
    1.4230    1.1970    0.0000 H   0  0  0  0  0  0  0  0  0  0  0  0
    2.9760   -1.3430    0.0000 H   0  0  0  0  0  0  0  0  0  0  0  0
    2.9570    2.3410    0.0000 H   0  0  0  0  0  0  0  0  0  0  0  0
    3.9900   -0.7690    0.0000 H   0  0  0  0  0  0  0  0  0  0  0  0
    4.3770    3.1110    0.0000 H   0  0  0  0  0  0  0  0  0  0  0  0
    3.5820    2.8830    0.0000 H   0  0  0  0  0  0  0  0  0  0  0  0
    2.3030    1.4390    0.0000 H   0  0  0  0  0  0  0  0  0  0  0  0
    2.2370   -0.8760    0.0000 H   0  0  0  0  0  0  0  0  0  0  0  0
    7.8260   -0.8400    0.0000 H   0  0  0  0  0  0  0  0  0  0  0  0
    5.9040   -0.9900    0.0000 H   0  0  0  0  0  0  0  0  0  0  0  0
    9.1940    1.8280    0.0000 H   0  0  0  0  0  0  0  0  0  0  0  0
    8.9700   -0.1570    0.0000 H   0  0  0  0  0  0  0  0  0  0  0  0
    7.6910   -1.6000    0.0000 H   0  0  0  0  0  0  0  0  0  0  0  0
    5.9290   -2.0860    0.0000 H   0  0  0  0  0  0  0  0  0  0  0  0
    3.5730   -2.1350    0.0000 H   0  0  0  0  0  0  0  0  0  0  0  0
    5.1730   -2.4620    0.0000 H   0  0  0  0  0  0  0  0  0  0  0  0
    5.9340    3.6670    0.0000 H   0  0  0  0  0  0  0  0  0  0  0  0
    7.8230    3.2810    0.0000 H   0  0  0  0  0  0  0  0  0  0  0  0
   -5.2230   -3.3780    0.0000 H   0  0  0  0  0  0  0  0  0  0  0  0
   -2.2390   -3.1200    0.0000 H   0  0  0  0  0  0  0  0  0  0  0  0
   -3.5180   -4.6410    0.0000 H   0  0  0  0  0  0  0  0  0  0  0  0
   -8.1230    3.5700    0.0000 H   0  0  0  0  0  0  0  0  0  0  0  0
   -6.1210    1.3430    0.0000 H   0  0  0  0  0  0  0  0  0  0  0  0
   -6.0150    3.3280    0.0000 H   0  0  0  0  0  0  0  0  0  0  0  0
  1  2  1  0  0  0  0
  1 25  1  0  0  0  0
  1 26  1  0  0  0  0
  1 27  1  0  0  0  0
  2  3  2  0  0  0  0
  2 24  1  0  0  0  0
  3  4  1  0  0  0  0
  3 28  1  0  0  0  0
  4  5  1  0  0  0  0
  4 29  1  0  0  0  0
  4 30  1  0  0  0  0
  5  6  1  0  0  0  0
  5 31  1  0  0  0  0
  5 32  1  0  0  0  0
  6  7  2  0  0  0  0
  6 23  1  0  0  0  0
  7  8  1  0  0  0  0
  7 33  1  0  0  0  0
  8  9  1  0  0  0  0
  8 34  1  0  0  0  0
  8 35  1  0  0  0  0
  9 10  1  0  0  0  0
  9 36  1  0  0  0  0
 10 11  1  0  0  0  0
 10 37  1  0  0  0  0
 10 38  1  0  0  0  0
 11 12  1  0  0  0  0
 11 39  1  0  0  0  0
 11 40  1  0  0  0  0
 12 13  1  0  0  0  0
 12 41  1  0  0  0  0
 13 14  1  0  0  0  0
 13 20  1  0  0  0  0
 13 42  1  6  0  0  0
 14 15  1  0  0  0  0
 14 22  1  0  0  0  0
 14 43  1  6  0  0  0
 15 16  1  0  0  0  0
 15 44  1  0  0  0  0
 15 45  1  0  0  0  0
 16 17  1  0  0  0  0
 16 21  1  0  0  0  0
 16 46  1  6  0  0  0
 17 18  1  0  0  0  0
 17 47  1  0  0  0  0
 17 48  1  0  0  0  0
 18 19  1  0  0  0  0
 18 22  1  0  0  0  0
 18 49  1  1  0  0  0
 19 20  1  0  0  0  0
 19 50  1  0  0  0  0
 19 51  1  0  0  0  0
 20 21  1  0  0  0  0
 20 52  1  6  0  0  0
 21 53  1  0  0  0  0
 21 54  1  0  0  0  0
 22 55  1  0  0  0  0
 22 56  1  0  0  0  0
 23 57  1  0  0  0  0
 23 58  1  0  0  0  0
 23 59  1  0  0  0  0
 24 60  1  0  0  0  0
 24 61  1  0  0  0  0
 24 62  1  0  0  0  0
M  END
$$$$
