2D_structures\o34_MMV1634387_2D.pdb
 OpenBabel02272408253D

 49 51  0  0  0  0  0  0  0  0999 V2000
    4.1480   -3.0490    0.0000 O   0  0  0  0  0  0  0  0  0  0  0  0
    4.2630   -1.5530    0.0000 C   0  0  0  0  0  0  0  0  0  0  0  0
    3.0260   -0.7050    0.0000 N   0  0  0  0  0  0  0  0  0  0  0  0
    3.1410    0.7900    0.0000 N   0  0  0  0  0  0  0  0  0  0  0  0
    4.4930    1.4380    0.0000 C   0  0  0  0  0  0  0  0  0  0  0  0
    4.6090    2.9340    0.0000 C   0  0  0  0  0  0  0  0  0  0  0  0
    3.3710    3.7810    0.0000 O   0  0  0  0  0  0  0  0  0  0  0  0
    5.9610    3.5820    0.0000 O   0  0  0  0  0  0  0  0  0  0  0  0
    5.7310    0.5910    0.0000 C   0  0  0  0  0  0  0  0  0  0  0  0
    5.6160   -0.9050    0.0000 C   0  0  0  0  0  0  0  0  0  0  0  0
    6.8540   -1.7520    0.0000 C   0  0  0  0  0  0  0  0  0  0  0  0
    8.2060   -1.1040    0.0000 C   0  0  0  0  0  0  0  0  0  0  0  0
    8.3220    0.3910    0.0000 C   0  0  0  0  0  0  0  0  0  0  0  0
    7.0840    1.2390    0.0000 C   0  0  0  0  0  0  0  0  0  0  0  0
    1.6730   -1.3540    0.0000 C   0  0  0  0  0  0  0  0  0  0  0  0
    0.3200   -2.0020    0.0000 C   0  0  0  0  0  0  0  0  0  0  0  0
   -1.0330   -2.6500    0.0000 O   0  0  0  0  0  0  0  0  0  0  0  0
   -2.2700   -1.8020    0.0000 C   0  0  0  0  0  0  0  0  0  0  0  0
   -2.1550   -0.3070    0.0000 C   0  0  0  0  0  0  0  0  0  0  0  0
   -3.3930    0.5410    0.0000 C   0  0  0  0  0  0  0  0  0  0  0  0
   -4.7460   -0.1070    0.0000 C   0  0  0  0  0  0  0  0  0  0  0  0
   -5.9830    0.7400    0.0000 C   0  0  0  0  0  0  0  0  0  0  0  0
   -7.2210    1.5880    0.0000 C   0  0  0  0  0  0  0  0  0  0  0  0
   -6.8310   -0.4970    0.0000 C   0  0  0  0  0  0  0  0  0  0  0  0
   -5.1360    1.9780    0.0000 C   0  0  0  0  0  0  0  0  0  0  0  0
   -4.8610   -1.6030    0.0000 C   0  0  0  0  0  0  0  0  0  0  0  0
   -3.6230   -2.4500    0.0000 C   0  0  0  0  0  0  0  0  0  0  0  0
    6.0770    5.0770    0.0000 H   0  0  0  0  0  0  0  0  0  0  0  0
    6.7380   -3.2480    0.0000 H   0  0  0  0  0  0  0  0  0  0  0  0
    9.4440   -1.9520    0.0000 H   0  0  0  0  0  0  0  0  0  0  0  0
    9.6740    1.0390    0.0000 H   0  0  0  0  0  0  0  0  0  0  0  0
    7.1990    2.7340    0.0000 H   0  0  0  0  0  0  0  0  0  0  0  0
    2.3210   -2.7060    0.0000 H   0  0  0  0  0  0  0  0  0  0  0  0
    1.0250   -0.0010    0.0000 H   0  0  0  0  0  0  0  0  0  0  0  0
    0.9680   -3.3540    0.0000 H   0  0  0  0  0  0  0  0  0  0  0  0
   -0.3280   -0.6490    0.0000 H   0  0  0  0  0  0  0  0  0  0  0  0
   -0.8030    0.3410    0.0000 H   0  0  0  0  0  0  0  0  0  0  0  0
   -3.3250    1.4240    0.0000 H   0  0  0  0  0  0  0  0  0  0  0  0
   -8.4590    2.4350    0.0000 H   0  0  0  0  0  0  0  0  0  0  0  0
   -6.8130    2.3740    0.0000 H   0  0  0  0  0  0  0  0  0  0  0  0
   -7.8070    0.9230    0.0000 H   0  0  0  0  0  0  0  0  0  0  0  0
   -7.6780   -1.7350    0.0000 H   0  0  0  0  0  0  0  0  0  0  0  0
   -7.6170   -0.0900    0.0000 H   0  0  0  0  0  0  0  0  0  0  0  0
   -5.8350   -1.6190    0.0000 H   0  0  0  0  0  0  0  0  0  0  0  0
   -4.2880    3.2160    0.0000 H   0  0  0  0  0  0  0  0  0  0  0  0
   -5.8000    2.5640    0.0000 H   0  0  0  0  0  0  0  0  0  0  0  0
   -4.3060    1.6690    0.0000 H   0  0  0  0  0  0  0  0  0  0  0  0
   -6.2140   -2.2510    0.0000 H   0  0  0  0  0  0  0  0  0  0  0  0
   -3.7380   -3.9460    0.0000 H   0  0  0  0  0  0  0  0  0  0  0  0
  1  2  2  0  0  0  0
  2  3  1  0  0  0  0
  2 10  1  0  0  0  0
  3  4  1  0  0  0  0
  3 15  1  0  0  0  0
  4  5  2  0  0  0  0
  5  6  1  0  0  0  0
  5  9  1  0  0  0  0
  6  7  2  0  0  0  0
  6  8  1  0  0  0  0
  8 28  1  0  0  0  0
  9 10  2  0  0  0  0
  9 14  1  0  0  0  0
 10 11  1  0  0  0  0
 11 12  2  0  0  0  0
 11 29  1  0  0  0  0
 12 13  1  0  0  0  0
 12 30  1  0  0  0  0
 13 14  2  0  0  0  0
 13 31  1  0  0  0  0
 14 32  1  0  0  0  0
 15 16  1  0  0  0  0
 15 33  1  0  0  0  0
 15 34  1  0  0  0  0
 16 17  1  0  0  0  0
 16 35  1  0  0  0  0
 16 36  1  0  0  0  0
 17 18  1  0  0  0  0
 18 19  2  0  0  0  0
 18 27  1  0  0  0  0
 19 20  1  0  0  0  0
 19 37  1  0  0  0  0
 20 21  2  0  0  0  0
 20 38  1  0  0  0  0
 21 22  1  0  0  0  0
 21 26  1  0  0  0  0
 22 23  1  0  0  0  0
 22 24  1  0  0  0  0
 22 25  1  0  0  0  0
 23 39  1  0  0  0  0
 23 40  1  0  0  0  0
 23 41  1  0  0  0  0
 24 42  1  0  0  0  0
 24 43  1  0  0  0  0
 24 44  1  0  0  0  0
 25 45  1  0  0  0  0
 25 46  1  0  0  0  0
 25 47  1  0  0  0  0
 26 27  2  0  0  0  0
 26 48  1  0  0  0  0
 27 49  1  0  0  0  0
M  END
$$$$
