2D_structures\o36_MMV1505642_2D.pdb
 OpenBabel02272408253D

 35 37  0  0  0  0  0  0  0  0999 V2000
    7.2620   -2.4980    0.0000 Cl  0  0  0  0  0  0  0  0  0  0  0  0
    6.0660   -1.5920    0.0000 C   0  0  0  0  0  0  0  0  0  0  0  0
    4.6840   -2.1750    0.0000 C   0  0  0  0  0  0  0  0  0  0  0  0
    3.4880   -1.2690    0.0000 C   0  0  0  0  0  0  0  0  0  0  0  0
    3.6750    0.2190    0.0000 C   0  0  0  0  0  0  0  0  0  0  0  0
    5.0570    0.8020    0.0000 C   0  0  0  0  0  0  0  0  0  0  0  0
    6.2530   -0.1040    0.0000 C   0  0  0  0  0  0  0  0  0  0  0  0
    7.6350    0.4780    0.0000 Cl  0  0  0  0  0  0  0  0  0  0  0  0
    2.4790    1.1250    0.0000 S   0  0  0  0  0  0  0  0  0  0  0  0
    3.3850    2.3210    0.0000 O   0  0  0  0  0  0  0  0  0  0  0  0
    1.5730   -0.0700    0.0000 O   0  0  0  0  0  0  0  0  0  0  0  0
    1.2840    2.0310    0.0000 N   0  0  0  0  0  0  0  0  0  0  0  0
   -0.0990    1.4490    0.0000 C   0  0  0  0  0  0  0  0  0  0  0  0
   -1.2940    2.3550    0.0000 C   0  0  0  0  0  0  0  0  0  0  0  0
   -2.6760    1.7720    0.0000 C   0  0  0  0  0  0  0  0  0  0  0  0
   -2.8630    0.2840    0.0000 C   0  0  0  0  0  0  0  0  0  0  0  0
   -1.6680   -0.6220    0.0000 C   0  0  0  0  0  0  0  0  0  0  0  0
   -0.2850   -0.0400    0.0000 C   0  0  0  0  0  0  0  0  0  0  0  0
   -4.2450   -0.2990    0.0000 N   0  0  0  0  0  0  0  0  0  0  0  0
   -4.5870   -1.7590    0.0000 C   0  0  0  0  0  0  0  0  0  0  0  0
   -6.0810   -1.8860    0.0000 C   0  0  0  0  0  0  0  0  0  0  0  0
   -6.6640   -0.5040    0.0000 C   0  0  0  0  0  0  0  0  0  0  0  0
   -5.5290    0.4770    0.0000 C   0  0  0  0  0  0  0  0  0  0  0  0
    4.4970   -3.6630    0.0000 H   0  0  0  0  0  0  0  0  0  0  0  0
    2.1060   -1.8510    0.0000 H   0  0  0  0  0  0  0  0  0  0  0  0
    5.2440    2.2900    0.0000 H   0  0  0  0  0  0  0  0  0  0  0  0
    1.4700    3.5190    0.0000 H   0  0  0  0  0  0  0  0  0  0  0  0
   -1.1070    3.8430    0.0000 H   0  0  0  0  0  0  0  0  0  0  0  0
   -3.8720    2.6780    0.0000 H   0  0  0  0  0  0  0  0  0  0  0  0
   -1.8540   -2.1100    0.0000 H   0  0  0  0  0  0  0  0  0  0  0  0
    0.9100   -0.9460    0.0000 H   0  0  0  0  0  0  0  0  0  0  0  0
   -3.6060   -2.8940    0.0000 H   0  0  0  0  0  0  0  0  0  0  0  0
   -6.8570   -3.1700    0.0000 H   0  0  0  0  0  0  0  0  0  0  0  0
   -8.1240   -0.1630    0.0000 H   0  0  0  0  0  0  0  0  0  0  0  0
   -5.6560    1.9720    0.0000 H   0  0  0  0  0  0  0  0  0  0  0  0
  1  2  1  0  0  0  0
  2  3  2  0  0  0  0
  2  7  1  0  0  0  0
  3  4  1  0  0  0  0
  3 24  1  0  0  0  0
  4  5  2  0  0  0  0
  4 25  1  0  0  0  0
  5  6  1  0  0  0  0
  5  9  1  0  0  0  0
  6  7  2  0  0  0  0
  6 26  1  0  0  0  0
  7  8  1  0  0  0  0
  9 10  2  0  0  0  0
  9 11  2  0  0  0  0
  9 12  1  0  0  0  0
 12 13  1  0  0  0  0
 12 27  1  0  0  0  0
 13 14  2  0  0  0  0
 13 18  1  0  0  0  0
 14 15  1  0  0  0  0
 14 28  1  0  0  0  0
 15 16  2  0  0  0  0
 15 29  1  0  0  0  0
 16 17  1  0  0  0  0
 16 19  1  0  0  0  0
 17 18  2  0  0  0  0
 17 30  1  0  0  0  0
 18 31  1  0  0  0  0
 19 20  1  0  0  0  0
 19 23  1  0  0  0  0
 20 21  2  0  0  0  0
 20 32  1  0  0  0  0
 21 22  1  0  0  0  0
 21 33  1  0  0  0  0
 22 23  2  0  0  0  0
 22 34  1  0  0  0  0
 23 35  1  0  0  0  0
M  END
$$$$
