2D_structures\o39_MMV002560_2D.pdb
 OpenBabel02272408253D

 69 72  0  0  1  0  0  0  0  0999 V2000
    9.7620   -0.5610    0.0000 C   0  0  0  0  0  0  0  0  0  0  0  0
    8.2660   -0.6760    0.0000 O   0  0  0  0  0  0  0  0  0  0  0  0
    7.6180   -2.0280    0.0000 N   0  0  0  0  0  0  0  0  0  0  0  0
    6.1220   -2.1430    0.0000 C   0  0  0  0  0  0  0  0  0  0  0  0
    5.2750   -0.9050    0.0000 C   0  0  0  0  0  0  0  0  0  0  0  0
    5.9230    0.4470    0.0000 O   0  0  0  0  0  0  0  0  0  0  0  0
    3.7790   -1.0200    0.0000 N   0  0  0  0  0  0  0  0  0  0  0  0
    2.9320    0.2170    0.0000 C   0  0  1  0  0  0  0  0  0  0  0  0
    2.0850    1.4550    0.0000 C   0  0  1  0  0  0  0  0  0  0  0  0
    1.9700    2.9510    0.0000 S   0  0  0  0  0  0  0  0  0  0  0  0
    0.6170    3.5990    0.0000 C   0  0  0  0  0  0  0  0  0  0  0  0
   -0.6210    2.7520    0.0000 C   0  0  0  0  0  0  0  0  0  0  0  0
   -0.5060    1.2560    0.0000 C   0  0  0  0  0  0  0  0  0  0  0  0
    0.8470    0.6080    0.0000 N   0  0  0  0  0  0  0  0  0  0  0  0
    1.6940   -0.6300    0.0000 C   0  0  0  0  0  0  0  0  0  0  0  0
    1.4180   -2.1040    0.0000 O   0  0  0  0  0  0  0  0  0  0  0  0
   -1.7430    0.4090    0.0000 C   0  0  0  0  0  0  0  0  0  0  0  0
   -3.0960    1.0570    0.0000 O   0  0  0  0  0  0  0  0  0  0  0  0
   -1.6290   -1.0870    0.0000 O   0  0  0  0  0  0  0  0  0  0  0  0
   -2.8660   -1.9340    0.0000 C   0  0  0  0  0  0  0  0  0  0  0  0
   -4.1040   -2.7820    0.0000 O   0  0  0  0  0  0  0  0  0  0  0  0
   -5.4570   -2.1330    0.0000 C   0  0  0  0  0  0  0  0  0  0  0  0
   -5.3880   -0.6350    0.0000 O   0  0  0  0  0  0  0  0  0  0  0  0
   -6.6940   -2.9810    0.0000 C   0  0  0  0  0  0  0  0  0  0  0  0
   -7.5420   -1.7430    0.0000 C   0  0  0  0  0  0  0  0  0  0  0  0
   -5.8470   -4.2190    0.0000 C   0  0  0  0  0  0  0  0  0  0  0  0
   -7.9320   -3.8280    0.0000 C   0  0  0  0  0  0  0  0  0  0  0  0
   -1.9730    3.4000    0.0000 C   0  0  0  0  0  0  0  0  0  0  0  0
   -2.0880    4.8950    0.0000 C   0  0  0  0  0  0  0  0  0  0  0  0
   -0.8510    5.7430    0.0000 C   0  0  0  0  0  0  0  0  0  0  0  0
    0.5620    5.2390    0.0000 S   0  0  0  0  0  0  0  0  0  0  0  0
    1.4780    6.4280    0.0000 C   0  0  0  0  0  0  0  0  0  0  0  0
    0.6300    7.6660    0.0000 N   0  0  0  0  0  0  0  0  0  0  0  0
   -0.8090    7.2420    0.0000 C   0  0  0  0  0  0  0  0  0  0  0  0
   -1.9970    8.1570    0.0000 C   0  0  0  0  0  0  0  0  0  0  0  0
    5.4740   -3.4960    0.0000 C   0  0  0  0  0  0  0  0  0  0  0  0
    6.1870   -4.8150    0.0000 C   0  0  0  0  0  0  0  0  0  0  0  0
    5.1530   -5.9020    0.0000 S   0  0  0  0  0  0  0  0  0  0  0  0
    3.8000   -5.2530    0.0000 C   0  0  0  0  0  0  0  0  0  0  0  0
    2.4810   -5.9670    0.0000 N   0  0  0  0  0  0  0  0  0  0  0  0
    3.9990   -3.7670    0.0000 N   0  0  0  0  0  0  0  0  0  0  0  0
    9.6470    0.9350    0.0000 H   0  0  0  0  0  0  0  0  0  0  0  0
    9.8770   -2.0560    0.0000 H   0  0  0  0  0  0  0  0  0  0  0  0
   11.2570   -0.4460    0.0000 H   0  0  0  0  0  0  0  0  0  0  0  0
    3.1310   -2.3730    0.0000 H   0  0  0  0  0  0  0  0  0  0  0  0
    4.1700    1.0650    0.0000 H   0  0  0  0  0  0  0  0  0  0  0  0
    3.5000    1.9530    0.0000 H   0  0  0  0  0  0  0  0  0  0  0  0
   -0.4320    4.6710    0.0000 H   0  0  0  0  0  0  0  0  0  0  0  0
    1.4900    4.8180    0.0000 H   0  0  0  0  0  0  0  0  0  0  0  0
   -2.0190   -3.1720    0.0000 H   0  0  0  0  0  0  0  0  0  0  0  0
   -3.7140   -0.6970    0.0000 H   0  0  0  0  0  0  0  0  0  0  0  0
   -8.3280   -2.1510    0.0000 H   0  0  0  0  0  0  0  0  0  0  0  0
   -6.4170   -0.7510    0.0000 H   0  0  0  0  0  0  0  0  0  0  0  0
   -8.3890   -0.5050    0.0000 H   0  0  0  0  0  0  0  0  0  0  0  0
   -6.5110   -4.8040    0.0000 H   0  0  0  0  0  0  0  0  0  0  0  0
   -4.4410   -3.6960    0.0000 H   0  0  0  0  0  0  0  0  0  0  0  0
   -5.0000   -5.4560    0.0000 H   0  0  0  0  0  0  0  0  0  0  0  0
   -7.5250   -4.6150    0.0000 H   0  0  0  0  0  0  0  0  0  0  0  0
   -8.5180   -3.1640    0.0000 H   0  0  0  0  0  0  0  0  0  0  0  0
   -9.1700   -4.6760    0.0000 H   0  0  0  0  0  0  0  0  0  0  0  0
   -3.2110    2.5520    0.0000 H   0  0  0  0  0  0  0  0  0  0  0  0
   -3.4410    5.5440    0.0000 H   0  0  0  0  0  0  0  0  0  0  0  0
    2.9770    6.3860    0.0000 H   0  0  0  0  0  0  0  0  0  0  0  0
   -1.0820    9.3460    0.0000 H   0  0  0  0  0  0  0  0  0  0  0  0
   -2.9120    6.9690    0.0000 H   0  0  0  0  0  0  0  0  0  0  0  0
   -3.1850    9.0730    0.0000 H   0  0  0  0  0  0  0  0  0  0  0  0
    7.6740   -5.0140    0.0000 H   0  0  0  0  0  0  0  0  0  0  0  0
    1.2030   -5.1810    0.0000 H   0  0  0  0  0  0  0  0  0  0  0  0
    2.4390   -7.4660    0.0000 H   0  0  0  0  0  0  0  0  0  0  0  0
  1  2  1  0  0  0  0
  1 42  1  0  0  0  0
  1 43  1  0  0  0  0
  1 44  1  0  0  0  0
  2  3  1  0  0  0  0
  3  4  2  0  0  0  0
  4  5  1  0  0  0  0
  4 36  1  0  0  0  0
  5  6  2  0  0  0  0
  5  7  1  0  0  0  0
  7  8  1  0  0  0  0
  7 45  1  0  0  0  0
  8  9  1  0  0  0  0
  8 15  1  0  0  0  0
  8 46  1  1  0  0  0
  9 10  1  0  0  0  0
  9 14  1  0  0  0  0
  9 47  1  1  0  0  0
 10 11  1  0  0  0  0
 11 12  1  0  0  0  0
 11 48  1  0  0  0  0
 11 49  1  0  0  0  0
 12 13  2  0  0  0  0
 12 28  1  0  0  0  0
 13 14  1  0  0  0  0
 13 17  1  0  0  0  0
 14 15  1  0  0  0  0
 15 16  2  0  0  0  0
 17 18  2  0  0  0  0
 17 19  1  0  0  0  0
 19 20  1  0  0  0  0
 20 21  1  0  0  0  0
 20 50  1  0  0  0  0
 20 51  1  0  0  0  0
 21 22  1  0  0  0  0
 22 23  2  0  0  0  0
 22 24  1  0  0  0  0
 24 25  1  0  0  0  0
 24 26  1  0  0  0  0
 24 27  1  0  0  0  0
 25 52  1  0  0  0  0
 25 53  1  0  0  0  0
 25 54  1  0  0  0  0
 26 55  1  0  0  0  0
 26 56  1  0  0  0  0
 26 57  1  0  0  0  0
 27 58  1  0  0  0  0
 27 59  1  0  0  0  0
 27 60  1  0  0  0  0
 28 29  2  0  0  0  0
 28 61  1  0  0  0  0
 29 30  1  0  0  0  0
 29 62  1  0  0  0  0
 30 31  1  0  0  0  0
 30 34  2  0  0  0  0
 31 32  1  0  0  0  0
 32 33  2  0  0  0  0
 32 63  1  0  0  0  0
 33 34  1  0  0  0  0
 34 35  1  0  0  0  0
 35 64  1  0  0  0  0
 35 65  1  0  0  0  0
 35 66  1  0  0  0  0
 36 37  2  0  0  0  0
 36 41  1  0  0  0  0
 37 38  1  0  0  0  0
 37 67  1  0  0  0  0
 38 39  1  0  0  0  0
 39 40  1  0  0  0  0
 39 41  2  0  0  0  0
 40 68  1  0  0  0  0
 40 69  1  0  0  0  0
M  END
$$$$
