2D_structures\o3_MMV1578565_2D.pdb
 OpenBabel02272408253D

 39 41  0  0  1  0  0  0  0  0999 V2000
   -6.2360   -1.9520    0.0000 C   0  0  0  0  0  0  0  0  0  0  0  0
   -4.7370   -2.0040    0.0000 S   0  0  0  0  0  0  0  0  0  0  0  0
   -3.9420   -0.7320    0.0000 C   0  0  0  0  0  0  0  0  0  0  0  0
   -3.1470    0.5400    0.0000 C   0  0  1  0  0  0  0  0  0  0  0  0
   -1.9650   -0.3830    0.0000 C   0  0  0  0  0  0  0  0  0  0  0  0
   -0.7220    0.4560    0.0000 N   0  0  0  0  0  0  0  0  0  0  0  0
    0.6880   -0.0570    0.0000 C   0  0  0  0  0  0  0  0  0  0  0  0
    2.0970   -0.5700    0.0000 C   0  0  0  0  0  0  0  0  0  0  0  0
    2.5110   -2.0120    0.0000 C   0  0  0  0  0  0  0  0  0  0  0  0
    4.0100   -2.0640    0.0000 N   0  0  0  0  0  0  0  0  0  0  0  0
    4.5230   -0.6540    0.0000 C   0  0  0  0  0  0  0  0  0  0  0  0
    5.9140   -0.0920    0.0000 C   0  0  0  0  0  0  0  0  0  0  0  0
    7.0960   -1.0160    0.0000 N   0  0  0  0  0  0  0  0  0  0  0  0
    6.1220    1.3930    0.0000 N   0  0  0  0  0  0  0  0  0  0  0  0
    4.9400    2.3170    0.0000 C   0  0  0  0  0  0  0  0  0  0  0  0
    3.5490    1.7540    0.0000 N   0  0  0  0  0  0  0  0  0  0  0  0
    3.3410    0.2690    0.0000 C   0  0  0  0  0  0  0  0  0  0  0  0
   -1.1360    1.8980    0.0000 C   0  0  0  0  0  0  0  0  0  0  0  0
   -2.6350    1.9500    0.0000 C   0  0  1  0  0  0  0  0  0  0  0  0
   -4.0900    2.3130    0.0000 O   0  0  0  0  0  0  0  0  0  0  0  0
   -7.7350   -1.9000    0.0000 H   0  0  0  0  0  0  0  0  0  0  0  0
   -6.2880   -3.4510    0.0000 H   0  0  0  0  0  0  0  0  0  0  0  0
   -6.1840   -0.4530    0.0000 H   0  0  0  0  0  0  0  0  0  0  0  0
   -5.2140    0.0630    0.0000 H   0  0  0  0  0  0  0  0  0  0  0  0
   -3.3230   -1.2330    0.0000 H   0  0  0  0  0  0  0  0  0  0  0  0
   -4.4960    1.1980    0.0000 H   0  0  0  0  0  0  0  0  0  0  0  0
   -1.0010   -1.5320    0.0000 H   0  0  0  0  0  0  0  0  0  0  0  0
   -2.4450   -1.0200    0.0000 H   0  0  0  0  0  0  0  0  0  0  0  0
    0.1750   -1.4670    0.0000 H   0  0  0  0  0  0  0  0  0  0  0  0
    1.2010    1.3530    0.0000 H   0  0  0  0  0  0  0  0  0  0  0  0
    1.5880   -3.1940    0.0000 H   0  0  0  0  0  0  0  0  0  0  0  0
    4.8490   -3.3070    0.0000 H   0  0  0  0  0  0  0  0  0  0  0  0
    8.4860   -0.4540    0.0000 H   0  0  0  0  0  0  0  0  0  0  0  0
    6.8870   -2.5010    0.0000 H   0  0  0  0  0  0  0  0  0  0  0  0
    5.1490    3.8020    0.0000 H   0  0  0  0  0  0  0  0  0  0  0  0
   -1.2400    3.3940    0.0000 H   0  0  0  0  0  0  0  0  0  0  0  0
    0.3420    2.1580    0.0000 H   0  0  0  0  0  0  0  0  0  0  0  0
   -2.4260    3.4350    0.0000 H   0  0  0  0  0  0  0  0  0  0  0  0
   -4.5040    3.7540    0.0000 H   0  0  0  0  0  0  0  0  0  0  0  0
  1  2  1  0  0  0  0
  1 21  1  0  0  0  0
  1 22  1  0  0  0  0
  1 23  1  0  0  0  0
  2  3  1  0  0  0  0
  3  4  1  0  0  0  0
  3 24  1  0  0  0  0
  3 25  1  0  0  0  0
  4  5  1  0  0  0  0
  4 19  1  0  0  0  0
  4 26  1  1  0  0  0
  5  6  1  0  0  0  0
  5 27  1  0  0  0  0
  5 28  1  0  0  0  0
  6  7  1  0  0  0  0
  6 18  1  0  0  0  0
  7  8  1  0  0  0  0
  7 29  1  0  0  0  0
  7 30  1  0  0  0  0
  8  9  2  0  0  0  0
  8 17  1  0  0  0  0
  9 10  1  0  0  0  0
  9 31  1  0  0  0  0
 10 11  1  0  0  0  0
 10 32  1  0  0  0  0
 11 12  2  0  0  0  0
 11 17  1  0  0  0  0
 12 13  1  0  0  0  0
 12 14  1  0  0  0  0
 13 33  1  0  0  0  0
 13 34  1  0  0  0  0
 14 15  2  0  0  0  0
 15 16  1  0  0  0  0
 15 35  1  0  0  0  0
 16 17  2  0  0  0  0
 18 19  1  0  0  0  0
 18 36  1  0  0  0  0
 18 37  1  0  0  0  0
 19 20  1  0  0  0  0
 19 38  1  1  0  0  0
 20 39  1  0  0  0  0
M  END
$$$$
