2D_structures\o41_MMV637945_2D.pdb
 OpenBabel02272408253D

 26 27  0  0  1  0  0  0  0  0999 V2000
   -2.0770    1.0310    0.0000 C   0  0  0  0  0  0  0  0  0  0  0  0
   -1.1350   -0.1360    0.0000 C   0  0  0  0  0  0  0  0  0  0  0  0
   -2.3940   -0.9510    0.0000 C   0  0  0  0  0  0  0  0  0  0  0  0
   -0.0730    0.9230    0.0000 C   0  0  1  0  0  0  0  0  0  0  0  0
    1.2630    0.2400    0.0000 N   0  0  0  0  0  0  0  0  0  0  0  0
    1.0260   -1.2410    0.0000 C   0  0  1  0  0  0  0  0  0  0  0  0
    2.5070   -1.4780    0.0000 C   0  0  0  0  0  0  0  0  0  0  0  0
    2.7440    0.0030    0.0000 C   0  0  0  0  0  0  0  0  0  0  0  0
    3.9590    0.8820    0.0000 O   0  0  0  0  0  0  0  0  0  0  0  0
   -0.4560   -1.4740    0.0000 S   0  0  0  0  0  0  0  0  0  0  0  0
   -1.1610   -1.8470    0.0000 O   0  0  0  0  0  0  0  0  0  0  0  0
   -0.0700   -2.9230    0.0000 O   0  0  0  0  0  0  0  0  0  0  0  0
    0.7460    2.1800    0.0000 C   0  0  0  0  0  0  0  0  0  0  0  0
    0.0680    3.5170    0.0000 O   0  0  0  0  0  0  0  0  0  0  0  0
    2.2440    2.0990    0.0000 O   0  0  0  0  0  0  0  0  0  0  0  0
   -3.0190    2.1990    0.0000 H   0  0  0  0  0  0  0  0  0  0  0  0
   -1.0330    2.1090    0.0000 H   0  0  0  0  0  0  0  0  0  0  0  0
   -3.3510    0.2390    0.0000 H   0  0  0  0  0  0  0  0  0  0  0  0
   -3.6540   -1.7660    0.0000 H   0  0  0  0  0  0  0  0  0  0  0  0
   -2.0070   -1.7480    0.0000 H   0  0  0  0  0  0  0  0  0  0  0  0
   -3.3570    0.2000    0.0000 H   0  0  0  0  0  0  0  0  0  0  0  0
   -1.1130    2.0040    0.0000 H   0  0  0  0  0  0  0  0  0  0  0  0
    1.0230   -2.7410    0.0000 H   0  0  0  0  0  0  0  0  0  0  0  0
    3.9880   -1.7150    0.0000 H   0  0  0  0  0  0  0  0  0  0  0  0
    2.2700   -2.9600    0.0000 H   0  0  0  0  0  0  0  0  0  0  0  0
    3.0630    3.3550    0.0000 H   0  0  0  0  0  0  0  0  0  0  0  0
  1  2  1  0  0  0  0
  1 16  1  0  0  0  0
  1 17  1  0  0  0  0
  1 18  1  0  0  0  0
  2  3  1  0  0  0  0
  2  4  1  0  0  0  0
  2 10  1  0  0  0  0
  3 19  1  0  0  0  0
  3 20  1  0  0  0  0
  3 21  1  0  0  0  0
  4  5  1  0  0  0  0
  4 13  1  0  0  0  0
  4 22  1  1  0  0  0
  5  6  1  0  0  0  0
  5  8  1  0  0  0  0
  6  7  1  0  0  0  0
  6 10  1  0  0  0  0
  6 23  1  6  0  0  0
  7  8  1  0  0  0  0
  7 24  1  0  0  0  0
  7 25  1  0  0  0  0
  8  9  2  0  0  0  0
 10 11  2  0  0  0  0
 10 12  2  0  0  0  0
 13 14  2  0  0  0  0
 13 15  1  0  0  0  0
 15 26  1  0  0  0  0
M  END
$$$$
