2D_structures\o43_MMV1580851_2D.pdb
 OpenBabel02272408253D

 46 48  0  0  0  0  0  0  0  0999 V2000
    7.0140   -3.1980    0.0000 C   0  0  0  0  0  0  0  0  0  0  0  0
    6.1820   -1.9500    0.0000 C   0  0  0  0  0  0  0  0  0  0  0  0
    5.3490   -0.7020    0.0000 C   0  0  0  0  0  0  0  0  0  0  0  0
    4.5170    0.5450    0.0000 C   0  0  0  0  0  0  0  0  0  0  0  0
    3.6850    1.7930    0.0000 C   0  0  0  0  0  0  0  0  0  0  0  0
    2.8530    3.0410    0.0000 O   0  0  0  0  0  0  0  0  0  0  0  0
    1.3560    2.9450    0.0000 C   0  0  0  0  0  0  0  0  0  0  0  0
    0.6910    1.6000    0.0000 C   0  0  0  0  0  0  0  0  0  0  0  0
   -0.8060    1.5030    0.0000 C   0  0  0  0  0  0  0  0  0  0  0  0
   -1.6380    2.7510    0.0000 C   0  0  0  0  0  0  0  0  0  0  0  0
   -3.1350    2.6540    0.0000 C   0  0  0  0  0  0  0  0  0  0  0  0
   -3.8000    1.3100    0.0000 C   0  0  0  0  0  0  0  0  0  0  0  0
   -3.1020   -0.0190    0.0000 O   0  0  0  0  0  0  0  0  0  0  0  0
   -4.1500   -1.0920    0.0000 C   0  0  0  0  0  0  0  0  0  0  0  0
   -4.0530   -2.5890    0.0000 C   0  0  0  0  0  0  0  0  0  0  0  0
   -2.7080   -3.2540    0.0000 O   0  0  0  0  0  0  0  0  0  0  0  0
   -5.3010   -3.4210    0.0000 C   0  0  0  0  0  0  0  0  0  0  0  0
   -5.2040   -4.9180    0.0000 O   0  0  0  0  0  0  0  0  0  0  0  0
   -6.6460   -2.7570    0.0000 C   0  0  0  0  0  0  0  0  0  0  0  0
   -6.7430   -1.2600    0.0000 C   0  0  0  0  0  0  0  0  0  0  0  0
   -5.4950   -0.4270    0.0000 C   0  0  0  0  0  0  0  0  0  0  0  0
   -5.2780    1.0570    0.0000 C   0  0  0  0  0  0  0  0  0  0  0  0
   -6.3520    2.1050    0.0000 O   0  0  0  0  0  0  0  0  0  0  0  0
   -0.9730    4.0960    0.0000 C   0  0  0  0  0  0  0  0  0  0  0  0
   -1.8060    5.3440    0.0000 O   0  0  0  0  0  0  0  0  0  0  0  0
    0.5230    4.1930    0.0000 C   0  0  0  0  0  0  0  0  0  0  0  0
    8.2620   -2.3660    0.0000 H   0  0  0  0  0  0  0  0  0  0  0  0
    5.7660   -4.0310    0.0000 H   0  0  0  0  0  0  0  0  0  0  0  0
    7.8460   -4.4460    0.0000 H   0  0  0  0  0  0  0  0  0  0  0  0
    4.9340   -2.7830    0.0000 H   0  0  0  0  0  0  0  0  0  0  0  0
    7.4300   -1.1180    0.0000 H   0  0  0  0  0  0  0  0  0  0  0  0
    6.5970    0.1300    0.0000 H   0  0  0  0  0  0  0  0  0  0  0  0
    4.1010   -1.5350    0.0000 H   0  0  0  0  0  0  0  0  0  0  0  0
    3.2690   -0.2870    0.0000 H   0  0  0  0  0  0  0  0  0  0  0  0
    5.7650    1.3780    0.0000 H   0  0  0  0  0  0  0  0  0  0  0  0
    4.9330    2.6260    0.0000 H   0  0  0  0  0  0  0  0  0  0  0  0
    2.4370    0.9610    0.0000 H   0  0  0  0  0  0  0  0  0  0  0  0
    1.5230    0.3520    0.0000 H   0  0  0  0  0  0  0  0  0  0  0  0
   -1.4700    0.1580    0.0000 H   0  0  0  0  0  0  0  0  0  0  0  0
   -3.9670    3.9020    0.0000 H   0  0  0  0  0  0  0  0  0  0  0  0
   -2.6120   -4.7500    0.0000 H   0  0  0  0  0  0  0  0  0  0  0  0
   -3.8600   -5.5830    0.0000 H   0  0  0  0  0  0  0  0  0  0  0  0
   -7.8940   -3.5890    0.0000 H   0  0  0  0  0  0  0  0  0  0  0  0
   -8.0870   -0.5950    0.0000 H   0  0  0  0  0  0  0  0  0  0  0  0
   -1.1410    6.6880    0.0000 H   0  0  0  0  0  0  0  0  0  0  0  0
    1.1880    5.5370    0.0000 H   0  0  0  0  0  0  0  0  0  0  0  0
  1  2  1  0  0  0  0
  1 27  1  0  0  0  0
  1 28  1  0  0  0  0
  1 29  1  0  0  0  0
  2  3  1  0  0  0  0
  2 30  1  0  0  0  0
  2 31  1  0  0  0  0
  3  4  1  0  0  0  0
  3 32  1  0  0  0  0
  3 33  1  0  0  0  0
  4  5  1  0  0  0  0
  4 34  1  0  0  0  0
  4 35  1  0  0  0  0
  5  6  1  0  0  0  0
  5 36  1  0  0  0  0
  5 37  1  0  0  0  0
  6  7  1  0  0  0  0
  7  8  2  0  0  0  0
  7 26  1  0  0  0  0
  8  9  1  0  0  0  0
  8 38  1  0  0  0  0
  9 10  2  0  0  0  0
  9 39  1  0  0  0  0
 10 11  1  0  0  0  0
 10 24  1  0  0  0  0
 11 12  2  0  0  0  0
 11 40  1  0  0  0  0
 12 13  1  0  0  0  0
 12 22  1  0  0  0  0
 13 14  1  0  0  0  0
 14 15  2  0  0  0  0
 14 21  1  0  0  0  0
 15 16  1  0  0  0  0
 15 17  1  0  0  0  0
 16 41  1  0  0  0  0
 17 18  1  0  0  0  0
 17 19  2  0  0  0  0
 18 42  1  0  0  0  0
 19 20  1  0  0  0  0
 19 43  1  0  0  0  0
 20 21  2  0  0  0  0
 20 44  1  0  0  0  0
 21 22  1  0  0  0  0
 22 23  2  0  0  0  0
 24 25  1  0  0  0  0
 24 26  2  0  0  0  0
 25 45  1  0  0  0  0
 26 46  1  0  0  0  0
M  END
$$$$
