2D_structures\o45_MMV1579844_2D.pdb
 OpenBabel02272408253D

 31 32  0  0  0  0  0  0  0  0999 V2000
    6.0070    0.2820    0.0000 N   0  0  0  0  0  0  0  0  0  0  0  0
    4.8750   -0.7020    0.0000 C   0  0  0  0  0  0  0  0  0  0  0  0
    5.1620   -2.1740    0.0000 N   0  0  0  0  0  0  0  0  0  0  0  0
    3.4570   -0.2140    0.0000 C   0  0  0  0  0  0  0  0  0  0  0  0
    2.3250   -1.1990    0.0000 C   0  0  0  0  0  0  0  0  0  0  0  0
    0.9070   -0.7110    0.0000 C   0  0  0  0  0  0  0  0  0  0  0  0
    0.6200    0.7620    0.0000 C   0  0  0  0  0  0  0  0  0  0  0  0
   -0.7980    1.2490    0.0000 C   0  0  0  0  0  0  0  0  0  0  0  0
   -2.2170    1.7370    0.0000 O   0  0  0  0  0  0  0  0  0  0  0  0
   -3.3480    0.7530    0.0000 C   0  0  0  0  0  0  0  0  0  0  0  0
   -4.7670    1.2410    0.0000 C   0  0  0  0  0  0  0  0  0  0  0  0
   -5.8990    0.2560    0.0000 C   0  0  0  0  0  0  0  0  0  0  0  0
   -5.6120   -1.2160    0.0000 C   0  0  0  0  0  0  0  0  0  0  0  0
   -6.7440   -2.2000    0.0000 Cl  0  0  0  0  0  0  0  0  0  0  0  0
   -4.1940   -1.7040    0.0000 C   0  0  0  0  0  0  0  0  0  0  0  0
   -3.0620   -0.7190    0.0000 C   0  0  0  0  0  0  0  0  0  0  0  0
    1.7520    1.7460    0.0000 C   0  0  0  0  0  0  0  0  0  0  0  0
    3.1700    1.2580    0.0000 C   0  0  0  0  0  0  0  0  0  0  0  0
    7.4260   -0.2050    0.0000 H   0  0  0  0  0  0  0  0  0  0  0  0
    5.7200    1.7550    0.0000 H   0  0  0  0  0  0  0  0  0  0  0  0
    6.5810   -2.6620    0.0000 H   0  0  0  0  0  0  0  0  0  0  0  0
    2.6120   -2.6710    0.0000 H   0  0  0  0  0  0  0  0  0  0  0  0
   -0.2250   -1.6950    0.0000 H   0  0  0  0  0  0  0  0  0  0  0  0
   -0.3100    2.6680    0.0000 H   0  0  0  0  0  0  0  0  0  0  0  0
   -1.2860   -0.1690    0.0000 H   0  0  0  0  0  0  0  0  0  0  0  0
   -5.0540    2.7130    0.0000 H   0  0  0  0  0  0  0  0  0  0  0  0
   -7.3170    0.7440    0.0000 H   0  0  0  0  0  0  0  0  0  0  0  0
   -3.9070   -3.1760    0.0000 H   0  0  0  0  0  0  0  0  0  0  0  0
   -1.6430   -1.2070    0.0000 H   0  0  0  0  0  0  0  0  0  0  0  0
    1.4650    3.2180    0.0000 H   0  0  0  0  0  0  0  0  0  0  0  0
    4.3020    2.2430    0.0000 H   0  0  0  0  0  0  0  0  0  0  0  0
  1  2  1  0  0  0  0
  1 19  1  0  0  0  0
  1 20  1  0  0  0  0
  2  3  2  0  0  0  0
  2  4  1  0  0  0  0
  3 21  1  0  0  0  0
  4  5  2  0  0  0  0
  4 18  1  0  0  0  0
  5  6  1  0  0  0  0
  5 22  1  0  0  0  0
  6  7  2  0  0  0  0
  6 23  1  0  0  0  0
  7  8  1  0  0  0  0
  7 17  1  0  0  0  0
  8  9  1  0  0  0  0
  8 24  1  0  0  0  0
  8 25  1  0  0  0  0
  9 10  1  0  0  0  0
 10 11  2  0  0  0  0
 10 16  1  0  0  0  0
 11 12  1  0  0  0  0
 11 26  1  0  0  0  0
 12 13  2  0  0  0  0
 12 27  1  0  0  0  0
 13 14  1  0  0  0  0
 13 15  1  0  0  0  0
 15 16  2  0  0  0  0
 15 28  1  0  0  0  0
 16 29  1  0  0  0  0
 17 18  2  0  0  0  0
 17 30  1  0  0  0  0
 18 31  1  0  0  0  0
M  END
$$$$
