2D_structures\o48_MMV688755_2D.pdb
 OpenBabel02272408253D

 37 39  0  0  1  0  0  0  0  0999 V2000
    8.7650   -0.1170    0.0000 F   0  0  0  0  0  0  0  0  0  0  0  0
    7.5270    0.7280    0.0000 C   0  0  0  0  0  0  0  0  0  0  0  0
    8.3720    1.9670    0.0000 F   0  0  0  0  0  0  0  0  0  0  0  0
    6.6810   -0.5100    0.0000 F   0  0  0  0  0  0  0  0  0  0  0  0
    6.2880    1.5740    0.0000 O   0  0  0  0  0  0  0  0  0  0  0  0
    4.9360    0.9240    0.0000 C   0  0  0  0  0  0  0  0  0  0  0  0
    4.8230   -0.5710    0.0000 C   0  0  0  0  0  0  0  0  0  0  0  0
    3.4710   -1.2210    0.0000 C   0  0  0  0  0  0  0  0  0  0  0  0
    2.2320   -0.3750    0.0000 C   0  0  0  0  0  0  0  0  0  0  0  0
    0.8800   -1.0250    0.0000 C   0  0  0  0  0  0  0  0  0  0  0  0
   -0.4720   -1.6750    0.0000 O   0  0  0  0  0  0  0  0  0  0  0  0
   -1.7100   -0.8290    0.0000 C   0  0  1  0  0  0  0  0  0  0  0  0
   -2.3280   -2.1960    0.0000 C   0  0  0  0  0  0  0  0  0  0  0  0
   -3.8210   -2.3450    0.0000 O   0  0  0  0  0  0  0  0  0  0  0  0
   -4.6960   -1.1260    0.0000 C   0  0  0  0  0  0  0  0  0  0  0  0
   -6.1870   -0.9610    0.0000 N   0  0  0  0  0  0  0  0  0  0  0  0
   -6.4900    0.5080    0.0000 C   0  0  0  0  0  0  0  0  0  0  0  0
   -5.1870    1.2510    0.0000 C   0  0  0  0  0  0  0  0  0  0  0  0
   -4.0780    0.2410    0.0000 N   0  0  0  0  0  0  0  0  0  0  0  0
   -2.5850    0.3890    0.0000 C   0  0  0  0  0  0  0  0  0  0  0  0
   -7.8570    1.1260    0.0000 N   0  3  0  0  0  0  0  0  0  0  0  0
   -8.0050    2.6190    0.0000 O   0  5  0  0  0  0  0  0  0  0  0  0
   -9.0750    0.2510    0.0000 O   0  0  0  0  0  0  0  0  0  0  0  0
    2.3450    1.1200    0.0000 C   0  0  0  0  0  0  0  0  0  0  0  0
    3.6970    1.7700    0.0000 C   0  0  0  0  0  0  0  0  0  0  0  0
    6.0620   -1.4170    0.0000 H   0  0  0  0  0  0  0  0  0  0  0  0
    3.3580   -2.7170    0.0000 H   0  0  0  0  0  0  0  0  0  0  0  0
    0.4000    0.3960    0.0000 H   0  0  0  0  0  0  0  0  0  0  0  0
    1.5300   -2.3770    0.0000 H   0  0  0  0  0  0  0  0  0  0  0  0
   -0.9740    0.1370    0.0000 H   0  0  0  0  0  0  0  0  0  0  0  0
   -2.4410   -3.6920    0.0000 H   0  0  0  0  0  0  0  0  0  0  0  0
   -0.8750   -2.5670    0.0000 H   0  0  0  0  0  0  0  0  0  0  0  0
   -5.0220    2.7420    0.0000 H   0  0  0  0  0  0  0  0  0  0  0  0
   -1.4900    0.9160    0.0000 H   0  0  0  0  0  0  0  0  0  0  0  0
   -2.9900    1.8330    0.0000 H   0  0  0  0  0  0  0  0  0  0  0  0
    1.1060    1.9660    0.0000 H   0  0  0  0  0  0  0  0  0  0  0  0
    3.8100    3.2660    0.0000 H   0  0  0  0  0  0  0  0  0  0  0  0
  1  2  1  0  0  0  0
  2  3  1  0  0  0  0
  2  4  1  0  0  0  0
  2  5  1  0  0  0  0
  5  6  1  0  0  0  0
  6  7  2  0  0  0  0
  6 25  1  0  0  0  0
  7  8  1  0  0  0  0
  7 26  1  0  0  0  0
  8  9  2  0  0  0  0
  8 27  1  0  0  0  0
  9 10  1  0  0  0  0
  9 24  1  0  0  0  0
 10 11  1  0  0  0  0
 10 28  1  0  0  0  0
 10 29  1  0  0  0  0
 11 12  1  0  0  0  0
 12 13  1  0  0  0  0
 12 20  1  0  0  0  0
 12 30  1  6  0  0  0
 13 14  1  0  0  0  0
 13 31  1  0  0  0  0
 13 32  1  0  0  0  0
 14 15  1  0  0  0  0
 15 16  2  0  0  0  0
 15 19  1  0  0  0  0
 16 17  1  0  0  0  0
 17 18  2  0  0  0  0
 17 21  1  0  0  0  0
 18 19  1  0  0  0  0
 18 33  1  0  0  0  0
 19 20  1  0  0  0  0
 20 34  1  0  0  0  0
 20 35  1  0  0  0  0
 21 22  1  0  0  0  0
 21 23  2  0  0  0  0
 24 25  2  0  0  0  0
 24 36  1  0  0  0  0
 25 37  1  0  0  0  0
M  CHG  2  21   1  22  -1
M  END
$$$$
