2D_structures\o51_MMV1578575_2D.pdb
 OpenBabel02272408253D

 85 88  0  0  1  0  0  0  0  0999 V2000
    6.6470    1.5800    0.0000 C   0  0  0  0  0  0  0  0  0  0  0  0
    5.2080    1.1560    0.0000 C   0  0  1  0  0  0  0  0  0  0  0  0
    5.8750   -0.1880    0.0000 C   0  0  1  0  0  0  0  0  0  0  0  0
    6.9610   -1.2220    0.0000 O   0  0  0  0  0  0  0  0  0  0  0  0
    5.0450   -1.4370    0.0000 C   0  0  0  0  0  0  0  0  0  0  0  0
    3.5480   -1.3430    0.0000 C   0  0  0  0  0  0  0  0  0  0  0  0
    2.8810    0.0010    0.0000 C   0  0  1  0  0  0  0  0  0  0  0  0
    4.3780   -0.0940    0.0000 C   0  0  0  0  0  0  0  0  0  0  0  0
    3.7110    1.2500    0.0000 C   0  0  1  0  0  0  0  0  0  0  0  0
    3.0440    2.5940    0.0000 C   0  0  0  0  0  0  0  0  0  0  0  0
    1.5470    2.6880    0.0000 C   0  0  0  0  0  0  0  0  0  0  0  0
    0.7170    1.4380    0.0000 C   0  0  1  0  0  0  0  0  0  0  0  0
    0.0500    2.7820    0.0000 C   0  0  0  0  0  0  0  0  0  0  0  0
    1.3840    0.0950    0.0000 C   0  0  1  0  0  0  0  0  0  0  0  0
    0.5540   -1.1550    0.0000 C   0  0  1  0  0  0  0  0  0  0  0  0
    1.9280   -1.7550    0.0000 O   0  0  0  0  0  0  0  0  0  0  0  0
   -0.9430   -1.0610    0.0000 C   0  0  0  0  0  0  0  0  0  0  0  0
   -1.6100    0.2830    0.0000 C   0  0  1  0  0  0  0  0  0  0  0  0
   -3.0550    0.6860    0.0000 C   0  0  0  0  0  0  0  0  0  0  0  0
   -4.2300   -0.2460    0.0000 C   0  0  0  0  0  0  0  0  0  0  0  0
   -4.0110   -1.7300    0.0000 C   0  0  0  0  0  0  0  0  0  0  0  0
   -3.7920   -3.2130    0.0000 C   0  0  0  0  0  0  0  0  0  0  0  0
   -3.5730   -4.6970    0.0000 C   0  0  0  0  0  0  0  0  0  0  0  0
   -2.1780   -5.2490    0.0000 C   0  0  0  0  0  0  0  0  0  0  0  0
   -1.9590   -6.7330    0.0000 C   0  0  0  0  0  0  0  0  0  0  0  0
   -1.0030   -4.3180    0.0000 C   0  0  0  0  0  0  0  0  0  0  0  0
   -5.6250    0.3060    0.0000 C   0  0  0  0  0  0  0  0  0  0  0  0
   -5.8440    1.7900    0.0000 O   0  0  0  0  0  0  0  0  0  0  0  0
   -6.8010   -0.6250    0.0000 O   0  0  0  0  0  0  0  0  0  0  0  0
   -3.1180    2.1850    0.0000 C   0  0  1  0  0  0  0  0  0  0  0  0
   -1.7120    2.7080    0.0000 C   0  0  0  0  0  0  0  0  0  0  0  0
   -0.7800    1.5320    0.0000 C   0  0  1  0  0  0  0  0  0  0  0  0
   -2.2330    1.1590    0.0000 C   0  0  0  0  0  0  0  0  0  0  0  0
   -3.4910    3.6380    0.0000 O   0  0  0  0  0  0  0  0  0  0  0  0
   -4.9360    4.0410    0.0000 C   0  0  0  0  0  0  0  0  0  0  0  0
   -6.0070    2.9910    0.0000 O   0  0  0  0  0  0  0  0  0  0  0  0
   -5.3090    5.4940    0.0000 C   0  0  0  0  0  0  0  0  0  0  0  0
    6.9640    0.8480    0.0000 H   0  0  0  0  0  0  0  0  0  0  0  0
    6.2660    2.8750    0.0000 H   0  0  0  0  0  0  0  0  0  0  0  0
    8.0860    2.0030    0.0000 H   0  0  0  0  0  0  0  0  0  0  0  0
    5.3870    2.4940    0.0000 H   0  0  0  0  0  0  0  0  0  0  0  0
    6.5690    0.2040    0.0000 H   0  0  0  0  0  0  0  0  0  0  0  0
    8.4000   -0.7980    0.0000 H   0  0  0  0  0  0  0  0  0  0  0  0
    6.4200   -2.0370    0.0000 H   0  0  0  0  0  0  0  0  0  0  0  0
    4.6920   -2.8950    0.0000 H   0  0  0  0  0  0  0  0  0  0  0  0
    3.7150   -2.8340    0.0000 H   0  0  0  0  0  0  0  0  0  0  0  0
    2.3560   -2.2540    0.0000 H   0  0  0  0  0  0  0  0  0  0  0  0
    4.9980   -1.4590    0.0000 H   0  0  0  0  0  0  0  0  0  0  0  0
    5.1640    1.1840    0.0000 H   0  0  0  0  0  0  0  0  0  0  0  0
    5.8080   -0.5470    0.0000 H   0  0  0  0  0  0  0  0  0  0  0  0
    4.5410    2.4990    0.0000 H   0  0  0  0  0  0  0  0  0  0  0  0
    2.8770    4.0840    0.0000 H   0  0  0  0  0  0  0  0  0  0  0  0
    4.3380    3.3530    0.0000 H   0  0  0  0  0  0  0  0  0  0  0  0
    0.4790    3.7410    0.0000 H   0  0  0  0  0  0  0  0  0  0  0  0
    2.0750    4.0920    0.0000 H   0  0  0  0  0  0  0  0  0  0  0  0
    1.0650    3.8860    0.0000 H   0  0  0  0  0  0  0  0  0  0  0  0
   -1.4500    2.8240    0.0000 H   0  0  0  0  0  0  0  0  0  0  0  0
   -0.4490    4.1970    0.0000 H   0  0  0  0  0  0  0  0  0  0  0  0
    2.2100   -1.1580    0.0000 H   0  0  0  0  0  0  0  0  0  0  0  0
    0.3820   -2.6450    0.0000 H   0  0  0  0  0  0  0  0  0  0  0  0
    2.0960   -3.2460    0.0000 H   0  0  0  0  0  0  0  0  0  0  0  0
   -2.2370   -1.8200    0.0000 H   0  0  0  0  0  0  0  0  0  0  0  0
   -0.7760   -2.5510    0.0000 H   0  0  0  0  0  0  0  0  0  0  0  0
   -2.5660   -0.8730    0.0000 H   0  0  0  0  0  0  0  0  0  0  0  0
   -5.4950   -1.9490    0.0000 H   0  0  0  0  0  0  0  0  0  0  0  0
   -2.5180   -1.8760    0.0000 H   0  0  0  0  0  0  0  0  0  0  0  0
   -2.3460   -2.8150    0.0000 H   0  0  0  0  0  0  0  0  0  0  0  0
   -5.2760   -3.4330    0.0000 H   0  0  0  0  0  0  0  0  0  0  0  0
   -4.7480   -5.6290    0.0000 H   0  0  0  0  0  0  0  0  0  0  0  0
   -0.4750   -6.5140    0.0000 H   0  0  0  0  0  0  0  0  0  0  0  0
   -3.4430   -6.9530    0.0000 H   0  0  0  0  0  0  0  0  0  0  0  0
   -1.7400   -8.2170    0.0000 H   0  0  0  0  0  0  0  0  0  0  0  0
   -0.0710   -5.4930    0.0000 H   0  0  0  0  0  0  0  0  0  0  0  0
   -1.7840   -3.0370    0.0000 H   0  0  0  0  0  0  0  0  0  0  0  0
    0.2780   -3.5360    0.0000 H   0  0  0  0  0  0  0  0  0  0  0  0
   -8.1950   -0.0730    0.0000 H   0  0  0  0  0  0  0  0  0  0  0  0
   -4.6020    1.9660    0.0000 H   0  0  0  0  0  0  0  0  0  0  0  0
   -2.3790    4.0510    0.0000 H   0  0  0  0  0  0  0  0  0  0  0  0
   -0.6780    3.7940    0.0000 H   0  0  0  0  0  0  0  0  0  0  0  0
   -2.9470    2.4790    0.0000 H   0  0  0  0  0  0  0  0  0  0  0  0
   -2.2230   -0.3410    0.0000 H   0  0  0  0  0  0  0  0  0  0  0  0
   -3.7330    1.1490    0.0000 H   0  0  0  0  0  0  0  0  0  0  0  0
   -6.7620    5.1210    0.0000 H   0  0  0  0  0  0  0  0  0  0  0  0
   -3.8560    5.8670    0.0000 H   0  0  0  0  0  0  0  0  0  0  0  0
   -5.6820    6.9470    0.0000 H   0  0  0  0  0  0  0  0  0  0  0  0
  1  2  1  0  0  0  0
  1 38  1  0  0  0  0
  1 39  1  0  0  0  0
  1 40  1  0  0  0  0
  2  3  1  0  0  0  0
  2  9  1  0  0  0  0
  2 41  1  6  0  0  0
  3  4  1  0  0  0  0
  3  5  1  0  0  0  0
  3 42  1  6  0  0  0
  4 43  1  0  0  0  0
  5  6  1  0  0  0  0
  5 44  1  0  0  0  0
  5 45  1  0  0  0  0
  6  7  1  0  0  0  0
  6 46  1  0  0  0  0
  6 47  1  0  0  0  0
  7  8  1  1  0  0  0
  7  9  1  0  0  0  0
  7 14  1  0  0  0  0
  8 48  1  0  0  0  0
  8 49  1  0  0  0  0
  8 50  1  0  0  0  0
  9 10  1  0  0  0  0
  9 51  1  6  0  0  0
 10 11  1  0  0  0  0
 10 52  1  0  0  0  0
 10 53  1  0  0  0  0
 11 12  1  0  0  0  0
 11 54  1  0  0  0  0
 11 55  1  0  0  0  0
 12 13  1  6  0  0  0
 12 14  1  0  0  0  0
 12 32  1  0  0  0  0
 13 56  1  0  0  0  0
 13 57  1  0  0  0  0
 13 58  1  0  0  0  0
 14 15  1  0  0  0  0
 14 59  1  1  0  0  0
 15 16  1  0  0  0  0
 15 17  1  0  0  0  0
 15 60  1  6  0  0  0
 16 61  1  0  0  0  0
 17 18  1  0  0  0  0
 17 62  1  0  0  0  0
 17 63  1  0  0  0  0
 18 19  1  0  0  0  0
 18 32  1  0  0  0  0
 18 64  1  6  0  0  0
 19 20  2  0  0  0  0
 19 30  1  0  0  0  0
 20 21  1  0  0  0  0
 20 27  1  0  0  0  0
 21 22  1  0  0  0  0
 21 65  1  0  0  0  0
 21 66  1  0  0  0  0
 22 23  1  0  0  0  0
 22 67  1  0  0  0  0
 22 68  1  0  0  0  0
 23 24  2  0  0  0  0
 23 69  1  0  0  0  0
 24 25  1  0  0  0  0
 24 26  1  0  0  0  0
 25 70  1  0  0  0  0
 25 71  1  0  0  0  0
 25 72  1  0  0  0  0
 26 73  1  0  0  0  0
 26 74  1  0  0  0  0
 26 75  1  0  0  0  0
 27 28  2  0  0  0  0
 27 29  1  0  0  0  0
 29 76  1  0  0  0  0
 30 31  1  0  0  0  0
 30 34  1  0  0  0  0
 30 77  1  1  0  0  0
 31 32  1  0  0  0  0
 31 78  1  0  0  0  0
 31 79  1  0  0  0  0
 32 33  1  6  0  0  0
 33 80  1  0  0  0  0
 33 81  1  0  0  0  0
 33 82  1  0  0  0  0
 34 35  1  0  0  0  0
 35 36  2  0  0  0  0
 35 37  1  0  0  0  0
 37 83  1  0  0  0  0
 37 84  1  0  0  0  0
 37 85  1  0  0  0  0
M  END
$$$$
