2D_structures\o53_MMV1663457_2D.pdb
 OpenBabel02272408253D

 38 40  0  0  0  0  0  0  0  0999 V2000
    0.2110   -1.8690    0.0000 O   0  0  0  0  0  0  0  0  0  0  0  0
   -0.4110   -0.5040    0.0000 C   0  0  0  0  0  0  0  0  0  0  0  0
    0.4600    0.7170    0.0000 N   0  0  0  0  0  0  0  0  0  0  0  0
    1.9530    0.5730    0.0000 C   0  0  0  0  0  0  0  0  0  0  0  0
    3.4460    0.4300    0.0000 C   0  0  0  0  0  0  0  0  0  0  0  0
    4.3170    1.6510    0.0000 C   0  0  0  0  0  0  0  0  0  0  0  0
    5.8100    1.5070    0.0000 C   0  0  0  0  0  0  0  0  0  0  0  0
    6.4320    0.1420    0.0000 C   0  0  0  0  0  0  0  0  0  0  0  0
    5.5610   -1.0790    0.0000 C   0  0  0  0  0  0  0  0  0  0  0  0
    4.0680   -0.9350    0.0000 C   0  0  0  0  0  0  0  0  0  0  0  0
   -1.9050   -0.3610    0.0000 C   0  0  0  0  0  0  0  0  0  0  0  0
   -2.8980   -1.4840    0.0000 C   0  0  0  0  0  0  0  0  0  0  0  0
   -4.2740   -0.8860    0.0000 N   0  0  0  0  0  0  0  0  0  0  0  0
   -4.1300    0.6070    0.0000 C   0  0  0  0  0  0  0  0  0  0  0  0
   -2.6660    0.9320    0.0000 N   0  0  0  0  0  0  0  0  0  0  0  0
   -2.2150    2.3620    0.0000 C   0  0  0  0  0  0  0  0  0  0  0  0
   -3.2280    3.4680    0.0000 C   0  0  0  0  0  0  0  0  0  0  0  0
   -4.6930    3.1430    0.0000 C   0  0  0  0  0  0  0  0  0  0  0  0
   -5.1440    1.7130    0.0000 C   0  0  0  0  0  0  0  0  0  0  0  0
   -2.5740   -2.9490    0.0000 C   0  0  0  0  0  0  0  0  0  0  0  0
   -2.2490   -4.4130    0.0000 C   0  0  0  0  0  0  0  0  0  0  0  0
    0.0080    2.1470    0.0000 H   0  0  0  0  0  0  0  0  0  0  0  0
    1.8090   -0.9200    0.0000 H   0  0  0  0  0  0  0  0  0  0  0  0
    2.0960    2.0660    0.0000 H   0  0  0  0  0  0  0  0  0  0  0  0
    3.6950    3.0160    0.0000 H   0  0  0  0  0  0  0  0  0  0  0  0
    6.6810    2.7280    0.0000 H   0  0  0  0  0  0  0  0  0  0  0  0
    7.9250   -0.0010    0.0000 H   0  0  0  0  0  0  0  0  0  0  0  0
    6.1830   -2.4440    0.0000 H   0  0  0  0  0  0  0  0  0  0  0  0
    3.1970   -2.1570    0.0000 H   0  0  0  0  0  0  0  0  0  0  0  0
   -0.8010    2.8630    0.0000 H   0  0  0  0  0  0  0  0  0  0  0  0
   -2.7780    4.8990    0.0000 H   0  0  0  0  0  0  0  0  0  0  0  0
   -5.7060    4.2490    0.0000 H   0  0  0  0  0  0  0  0  0  0  0  0
   -6.6080    1.3880    0.0000 H   0  0  0  0  0  0  0  0  0  0  0  0
   -1.1090   -2.6240    0.0000 H   0  0  0  0  0  0  0  0  0  0  0  0
   -4.0380   -3.2730    0.0000 H   0  0  0  0  0  0  0  0  0  0  0  0
   -1.9240   -5.8770    0.0000 H   0  0  0  0  0  0  0  0  0  0  0  0
   -0.7840   -4.0880    0.0000 H   0  0  0  0  0  0  0  0  0  0  0  0
   -3.7130   -4.7380    0.0000 H   0  0  0  0  0  0  0  0  0  0  0  0
  1  2  2  0  0  0  0
  2  3  1  0  0  0  0
  2 11  1  0  0  0  0
  3  4  1  0  0  0  0
  3 22  1  0  0  0  0
  4  5  1  0  0  0  0
  4 23  1  0  0  0  0
  4 24  1  0  0  0  0
  5  6  2  0  0  0  0
  5 10  1  0  0  0  0
  6  7  1  0  0  0  0
  6 25  1  0  0  0  0
  7  8  2  0  0  0  0
  7 26  1  0  0  0  0
  8  9  1  0  0  0  0
  8 27  1  0  0  0  0
  9 10  2  0  0  0  0
  9 28  1  0  0  0  0
 10 29  1  0  0  0  0
 11 12  2  0  0  0  0
 11 15  1  0  0  0  0
 12 13  1  0  0  0  0
 12 20  1  0  0  0  0
 13 14  2  0  0  0  0
 14 15  1  0  0  0  0
 14 19  1  0  0  0  0
 15 16  1  0  0  0  0
 16 17  2  0  0  0  0
 16 30  1  0  0  0  0
 17 18  1  0  0  0  0
 17 31  1  0  0  0  0
 18 19  2  0  0  0  0
 18 32  1  0  0  0  0
 19 33  1  0  0  0  0
 20 21  1  0  0  0  0
 20 34  1  0  0  0  0
 20 35  1  0  0  0  0
 21 36  1  0  0  0  0
 21 37  1  0  0  0  0
 21 38  1  0  0  0  0
M  END
$$$$
