2D_structures\o55_MMV1633970_2D.pdb
 OpenBabel02272408253D

 47 49  0  0  1  0  0  0  0  0999 V2000
    9.2240   -1.9500    0.0000 O   0  0  0  0  0  0  0  0  0  0  0  0
    8.7180   -0.5380    0.0000 C   0  0  0  0  0  0  0  0  0  0  0  0
    9.6870    0.6070    0.0000 O   0  0  0  0  0  0  0  0  0  0  0  0
    7.2420   -0.2700    0.0000 C   0  0  0  0  0  0  0  0  0  0  0  0
    6.2720   -1.4150    0.0000 C   0  0  0  0  0  0  0  0  0  0  0  0
    4.7960   -1.1470    0.0000 C   0  0  0  0  0  0  0  0  0  0  0  0
    4.2900    0.2650    0.0000 C   0  0  0  0  0  0  0  0  0  0  0  0
    2.8140    0.5330    0.0000 C   0  0  0  0  0  0  0  0  0  0  0  0
    2.3080    1.9450    0.0000 C   0  0  0  0  0  0  0  0  0  0  0  0
    0.8320    2.2120    0.0000 C   0  0  0  0  0  0  0  0  0  0  0  0
   -0.1380    1.0680    0.0000 C   0  0  0  0  0  0  0  0  0  0  0  0
   -1.6140    1.3350    0.0000 O   0  0  0  0  0  0  0  0  0  0  0  0
   -2.5840    0.1910    0.0000 C   0  0  1  0  0  0  0  0  0  0  0  0
   -3.5420    1.3440    0.0000 O   0  0  0  0  0  0  0  0  0  0  0  0
   -5.0210    1.0910    0.0000 C   0  0  1  0  0  0  0  0  0  0  0  0
   -5.5400   -0.3160    0.0000 C   0  0  1  0  0  0  0  0  0  0  0  0
   -6.5100   -1.4610    0.0000 O   0  0  0  0  0  0  0  0  0  0  0  0
   -4.5820   -1.4700    0.0000 C   0  0  1  0  0  0  0  0  0  0  0  0
   -3.1030   -1.2160    0.0000 C   0  0  1  0  0  0  0  0  0  0  0  0
   -1.6270   -1.4840    0.0000 O   0  0  0  0  0  0  0  0  0  0  0  0
   -4.0750   -2.8820    0.0000 O   0  0  0  0  0  0  0  0  0  0  0  0
   -6.4970    1.3580    0.0000 C   0  0  0  0  0  0  0  0  0  0  0  0
   -7.9730    1.6260    0.0000 O   0  0  0  0  0  0  0  0  0  0  0  0
    0.3680   -0.3440    0.0000 C   0  0  0  0  0  0  0  0  0  0  0  0
    1.8440   -0.6120    0.0000 C   0  0  0  0  0  0  0  0  0  0  0  0
    5.2600    1.4090    0.0000 C   0  0  0  0  0  0  0  0  0  0  0  0
    6.7360    1.1420    0.0000 C   0  0  0  0  0  0  0  0  0  0  0  0
   11.1630    0.3390    0.0000 H   0  0  0  0  0  0  0  0  0  0  0  0
    6.7780   -2.8260    0.0000 H   0  0  0  0  0  0  0  0  0  0  0  0
    3.8270   -2.2910    0.0000 H   0  0  0  0  0  0  0  0  0  0  0  0
    3.2770    3.0890    0.0000 H   0  0  0  0  0  0  0  0  0  0  0  0
    0.3250    3.6240    0.0000 H   0  0  0  0  0  0  0  0  0  0  0  0
   -1.2880   -0.5660    0.0000 H   0  0  0  0  0  0  0  0  0  0  0  0
   -5.0140    2.5910    0.0000 H   0  0  0  0  0  0  0  0  0  0  0  0
   -6.2730   -0.0010    0.0000 H   0  0  0  0  0  0  0  0  0  0  0  0
   -7.9860   -1.1930    0.0000 H   0  0  0  0  0  0  0  0  0  0  0  0
   -5.8840   -2.2140    0.0000 H   0  0  0  0  0  0  0  0  0  0  0  0
   -3.1100   -2.7160    0.0000 H   0  0  0  0  0  0  0  0  0  0  0  0
   -1.1210   -2.8960    0.0000 H   0  0  0  0  0  0  0  0  0  0  0  0
   -5.0450   -4.0260    0.0000 H   0  0  0  0  0  0  0  0  0  0  0  0
   -6.2290    2.8340    0.0000 H   0  0  0  0  0  0  0  0  0  0  0  0
   -6.7330    0.5970    0.0000 H   0  0  0  0  0  0  0  0  0  0  0  0
   -8.4790    3.0380    0.0000 H   0  0  0  0  0  0  0  0  0  0  0  0
   -0.6010   -1.4890    0.0000 H   0  0  0  0  0  0  0  0  0  0  0  0
    2.3510   -2.0240    0.0000 H   0  0  0  0  0  0  0  0  0  0  0  0
    4.7530    2.8210    0.0000 H   0  0  0  0  0  0  0  0  0  0  0  0
    7.7050    2.2860    0.0000 H   0  0  0  0  0  0  0  0  0  0  0  0
  1  2  2  0  0  0  0
  2  3  1  0  0  0  0
  2  4  1  0  0  0  0
  3 28  1  0  0  0  0
  4  5  2  0  0  0  0
  4 27  1  0  0  0  0
  5  6  1  0  0  0  0
  5 29  1  0  0  0  0
  6  7  2  0  0  0  0
  6 30  1  0  0  0  0
  7  8  1  0  0  0  0
  7 26  1  0  0  0  0
  8  9  2  0  0  0  0
  8 25  1  0  0  0  0
  9 10  1  0  0  0  0
  9 31  1  0  0  0  0
 10 11  2  0  0  0  0
 10 32  1  0  0  0  0
 11 12  1  0  0  0  0
 11 24  1  0  0  0  0
 12 13  1  0  0  0  0
 13 14  1  0  0  0  0
 13 19  1  0  0  0  0
 13 33  1  1  0  0  0
 14 15  1  0  0  0  0
 15 16  1  0  0  0  0
 15 22  1  0  0  0  0
 15 34  1  6  0  0  0
 16 17  1  0  0  0  0
 16 18  1  0  0  0  0
 16 35  1  1  0  0  0
 17 36  1  0  0  0  0
 18 19  1  0  0  0  0
 18 21  1  0  0  0  0
 18 37  1  6  0  0  0
 19 20  1  0  0  0  0
 19 38  1  1  0  0  0
 20 39  1  0  0  0  0
 21 40  1  0  0  0  0
 22 23  1  0  0  0  0
 22 41  1  0  0  0  0
 22 42  1  0  0  0  0
 23 43  1  0  0  0  0
 24 25  2  0  0  0  0
 24 44  1  0  0  0  0
 25 45  1  0  0  0  0
 26 27  2  0  0  0  0
 26 46  1  0  0  0  0
 27 47  1  0  0  0  0
M  END
$$$$
