2D_structures\o57_MMV093250_2D.pdb
 OpenBabel02272408253D

 54 58  0  0  1  0  0  0  0  0999 V2000
   -4.5070    1.6330    0.0000 C   0  0  0  0  0  0  0  0  0  0  0  0
   -3.3310    0.7010    0.0000 C   0  0  1  0  0  0  0  0  0  0  0  0
   -1.9080    0.2280    0.0000 C   0  0  0  0  0  0  0  0  0  0  0  0
   -1.6060   -1.2410    0.0000 N   0  0  0  0  0  0  0  0  0  0  0  0
   -2.7270   -2.2370    0.0000 C   0  0  0  0  0  0  0  0  0  0  0  0
   -4.1500   -1.7640    0.0000 C   0  0  1  0  0  0  0  0  0  0  0  0
   -4.3690   -3.2480    0.0000 C   0  0  0  0  0  0  0  0  0  0  0  0
   -4.4520   -0.2950    0.0000 O   0  0  0  0  0  0  0  0  0  0  0  0
   -0.1820   -1.7140    0.0000 C   0  0  0  0  0  0  0  0  0  0  0  0
    0.1200   -3.1830    0.0000 N   0  0  0  0  0  4  0  0  0  0  0  0
    1.5430   -3.6570    0.0000 C   0  0  0  0  0  0  0  0  0  0  0  0
    2.6650   -2.6600    0.0000 N   0  0  0  0  0  0  0  0  0  0  0  0
    2.3630   -1.1910    0.0000 C   0  0  0  0  0  0  0  0  0  0  0  0
    0.9390   -0.7180    0.0000 C   0  0  0  0  0  0  0  0  0  0  0  0
    0.9490    0.7820    0.0000 C   0  0  0  0  0  0  0  0  0  0  0  0
    2.3790    1.2360    0.0000 C   0  0  0  0  0  0  0  0  0  0  0  0
    3.2530    0.0170    0.0000 N   0  0  0  0  0  0  0  0  0  0  0  0
    4.7530    0.0060    0.0000 C   0  0  0  0  0  0  0  0  0  0  0  0
    5.4940   -1.2980    0.0000 C   0  0  0  0  0  0  0  0  0  0  0  0
    6.9940   -1.3080    0.0000 C   0  0  0  0  0  0  0  0  0  0  0  0
    7.7520   -0.0140    0.0000 C   0  0  0  0  0  0  0  0  0  0  0  0
    9.2520   -0.0240    0.0000 F   0  0  0  0  0  0  0  0  0  0  0  0
    7.0110    1.2900    0.0000 C   0  0  0  0  0  0  0  0  0  0  0  0
    5.5110    1.3000    0.0000 C   0  0  0  0  0  0  0  0  0  0  0  0
   -0.2580    1.6720    0.0000 C   0  0  0  0  0  0  0  0  0  0  0  0
   -1.6330    1.0710    0.0000 C   0  0  0  0  0  0  0  0  0  0  0  0
   -2.8400    1.9610    0.0000 C   0  0  0  0  0  0  0  0  0  0  0  0
   -2.6730    3.4510    0.0000 C   0  0  0  0  0  0  0  0  0  0  0  0
   -1.2990    4.0520    0.0000 C   0  0  0  0  0  0  0  0  0  0  0  0
   -0.0910    3.1630    0.0000 C   0  0  0  0  0  0  0  0  0  0  0  0
   -5.6830    2.5640    0.0000 H   0  0  0  0  0  0  0  0  0  0  0  0
   -5.4380    0.4570    0.0000 H   0  0  0  0  0  0  0  0  0  0  0  0
   -3.5750    2.8090    0.0000 H   0  0  0  0  0  0  0  0  0  0  0  0
   -3.1330    1.4730    0.0000 H   0  0  0  0  0  0  0  0  0  0  0  0
   -2.0540    1.7210    0.0000 H   0  0  0  0  0  0  0  0  0  0  0  0
   -0.4080    0.2710    0.0000 H   0  0  0  0  0  0  0  0  0  0  0  0
   -1.5510   -3.1690    0.0000 H   0  0  0  0  0  0  0  0  0  0  0  0
   -3.2740   -3.6340    0.0000 H   0  0  0  0  0  0  0  0  0  0  0  0
   -5.6500   -1.8060    0.0000 H   0  0  0  0  0  0  0  0  0  0  0  0
   -4.5880   -4.7320    0.0000 H   0  0  0  0  0  0  0  0  0  0  0  0
   -5.8530   -3.0290    0.0000 H   0  0  0  0  0  0  0  0  0  0  0  0
   -2.9230   -3.6460    0.0000 H   0  0  0  0  0  0  0  0  0  0  0  0
    1.8450   -5.1260    0.0000 H   0  0  0  0  0  0  0  0  0  0  0  0
    2.8520    2.6590    0.0000 H   0  0  0  0  0  0  0  0  0  0  0  0
    4.7350   -2.5920    0.0000 H   0  0  0  0  0  0  0  0  0  0  0  0
    7.7350   -2.6120    0.0000 H   0  0  0  0  0  0  0  0  0  0  0  0
    7.7700    2.5840    0.0000 H   0  0  0  0  0  0  0  0  0  0  0  0
    4.7700    2.6040    0.0000 H   0  0  0  0  0  0  0  0  0  0  0  0
   -2.4800   -0.1670    0.0000 H   0  0  0  0  0  0  0  0  0  0  0  0
   -4.3190    1.7100    0.0000 H   0  0  0  0  0  0  0  0  0  0  0  0
   -3.8810    4.3410    0.0000 H   0  0  0  0  0  0  0  0  0  0  0  0
   -1.1320    5.5430    0.0000 H   0  0  0  0  0  0  0  0  0  0  0  0
    1.2830    3.7630    0.0000 H   0  0  0  0  0  0  0  0  0  0  0  0
    3.5993   -2.9704    0.0000 H   0  0  0  0  0  0  0  0  0  0  0  0
  1  2  1  0  0  0  0
  1 31  1  0  0  0  0
  1 32  1  0  0  0  0
  1 33  1  0  0  0  0
  2  3  1  0  0  0  0
  2  8  1  0  0  0  0
  2 34  1  6  0  0  0
  3  4  1  0  0  0  0
  3 35  1  0  0  0  0
  3 36  1  0  0  0  0
  4  5  1  0  0  0  0
  4  9  1  0  0  0  0
  5  6  1  0  0  0  0
  5 37  1  0  0  0  0
  5 38  1  0  0  0  0
  6  7  1  0  0  0  0
  6  8  1  0  0  0  0
  6 39  1  6  0  0  0
  7 40  1  0  0  0  0
  7 41  1  0  0  0  0
  7 42  1  0  0  0  0
  9 10  2  0  0  0  0
  9 14  1  0  0  0  0
 10 11  2  0  0  0  0
 11 12  1  0  0  0  0
 11 43  1  0  0  0  0
 12 13  1  0  0  0  0
 12 54  1  0  0  0  0
 13 14  2  0  0  0  0
 13 17  1  0  0  0  0
 14 15  1  0  0  0  0
 15 16  2  0  0  0  0
 15 25  1  0  0  0  0
 16 17  1  0  0  0  0
 16 44  1  0  0  0  0
 17 18  1  0  0  0  0
 18 19  2  0  0  0  0
 18 24  1  0  0  0  0
 19 20  1  0  0  0  0
 19 45  1  0  0  0  0
 20 21  2  0  0  0  0
 20 46  1  0  0  0  0
 21 22  1  0  0  0  0
 21 23  1  0  0  0  0
 23 24  2  0  0  0  0
 23 47  1  0  0  0  0
 24 48  1  0  0  0  0
 25 26  2  0  0  0  0
 25 30  1  0  0  0  0
 26 27  1  0  0  0  0
 26 49  1  0  0  0  0
 27 28  2  0  0  0  0
 27 50  1  0  0  0  0
 28 29  1  0  0  0  0
 28 51  1  0  0  0  0
 29 30  2  0  0  0  0
 29 52  1  0  0  0  0
 30 53  1  0  0  0  0
M  END
$$$$
