2D_structures\o63_MMV002354_2D.pdb
 OpenBabel02272408253D

 15 15  0  0  1  0  0  0  0  0999 V2000
    2.3120    0.0940    0.0000 C   0  0  0  0  0  0  0  0  0  0  0  0
    0.8270    0.3060    0.0000 C   0  0  1  0  0  0  0  0  0  0  0  0
    0.7780    1.8050    0.0000 O   0  0  0  0  0  0  0  0  0  0  0  0
   -0.4960    1.0130    0.0000 C   0  0  1  0  0  0  0  0  0  0  0  0
   -1.4220   -0.1670    0.0000 P   0  0  0  0  0  0  0  0  0  0  0  0
   -2.3480   -1.3470    0.0000 O   0  0  0  0  0  0  0  0  0  0  0  0
   -0.2420   -1.0930    0.0000 O   0  0  0  0  0  0  0  0  0  0  0  0
   -2.6020    0.7590    0.0000 O   0  0  0  0  0  0  0  0  0  0  0  0
    3.7970   -0.1180    0.0000 H   0  0  0  0  0  0  0  0  0  0  0  0
    2.1000   -1.3910    0.0000 H   0  0  0  0  0  0  0  0  0  0  0  0
    2.5240    1.5790    0.0000 H   0  0  0  0  0  0  0  0  0  0  0  0
    0.7190   -1.1900    0.0000 H   0  0  0  0  0  0  0  0  0  0  0  0
   -1.4970    2.1300    0.0000 H   0  0  0  0  0  0  0  0  0  0  0  0
   -0.4540   -2.5780    0.0000 H   0  0  0  0  0  0  0  0  0  0  0  0
   -3.9940    0.2000    0.0000 H   0  0  0  0  0  0  0  0  0  0  0  0
  1  2  1  0  0  0  0
  1  9  1  0  0  0  0
  1 10  1  0  0  0  0
  1 11  1  0  0  0  0
  2  3  1  0  0  0  0
  2  4  1  0  0  0  0
  2 12  1  1  0  0  0
  3  4  1  0  0  0  0
  4  5  1  0  0  0  0
  4 13  1  1  0  0  0
  5  6  2  0  0  0  0
  5  7  1  0  0  0  0
  5  8  1  0  0  0  0
  7 14  1  0  0  0  0
  8 15  1  0  0  0  0
M  END
$$$$
