2D_structures\o65_MMV1581554_2D.pdb
 OpenBabel02272408253D

 42 45  0  0  0  0  0  0  0  0999 V2000
   -5.7630    1.9800    0.0000 N   0  0  0  0  0  0  0  0  0  0  0  0
   -4.6200    1.0090    0.0000 C   0  0  0  0  0  0  0  0  0  0  0  0
   -4.8890   -0.4670    0.0000 C   0  0  0  0  0  0  0  0  0  0  0  0
   -3.7450   -1.4380    0.0000 C   0  0  0  0  0  0  0  0  0  0  0  0
   -4.0140   -2.9130    0.0000 N   0  0  0  0  0  0  0  0  0  0  0  0
   -2.3330   -0.9330    0.0000 C   0  0  0  0  0  0  0  0  0  0  0  0
   -1.1890   -1.9030    0.0000 N   0  0  0  0  0  0  0  0  0  0  0  0
    0.2230   -1.3980    0.0000 C   0  0  0  0  0  0  0  0  0  0  0  0
    0.4920    0.0770    0.0000 C   0  0  0  0  0  0  0  0  0  0  0  0
    1.9050    0.5830    0.0000 N   0  0  0  0  0  0  0  0  0  0  0  0
    2.1740    2.0580    0.0000 C   0  0  0  0  0  0  0  0  0  0  0  0
    3.5860    2.5630    0.0000 C   0  0  0  0  0  0  0  0  0  0  0  0
    3.8550    4.0390    0.0000 C   0  0  0  0  0  0  0  0  0  0  0  0
    2.7110    5.0100    0.0000 C   0  0  0  0  0  0  0  0  0  0  0  0
    2.9800    6.4850    0.0000 F   0  0  0  0  0  0  0  0  0  0  0  0
    1.2990    4.5050    0.0000 C   0  0  0  0  0  0  0  0  0  0  0  0
    1.0300    3.0290    0.0000 C   0  0  0  0  0  0  0  0  0  0  0  0
   -0.6510    1.0480    0.0000 N   0  0  0  0  0  0  0  0  0  0  0  0
   -2.0640    0.5430    0.0000 C   0  0  0  0  0  0  0  0  0  0  0  0
   -3.2070    1.5140    0.0000 C   0  0  0  0  0  0  0  0  0  0  0  0
    1.3670   -2.3690    0.0000 C   0  0  0  0  0  0  0  0  0  0  0  0
    1.0980   -3.8450    0.0000 C   0  0  0  0  0  0  0  0  0  0  0  0
    2.2420   -4.8150    0.0000 C   0  0  0  0  0  0  0  0  0  0  0  0
    3.6540   -4.3100    0.0000 C   0  0  0  0  0  0  0  0  0  0  0  0
    3.9230   -2.8350    0.0000 C   0  0  0  0  0  0  0  0  0  0  0  0
    2.7790   -1.8640    0.0000 C   0  0  0  0  0  0  0  0  0  0  0  0
   -5.4940    3.4550    0.0000 H   0  0  0  0  0  0  0  0  0  0  0  0
   -7.1760    1.4750    0.0000 H   0  0  0  0  0  0  0  0  0  0  0  0
   -6.3010   -0.9720    0.0000 H   0  0  0  0  0  0  0  0  0  0  0  0
   -5.4260   -3.4180    0.0000 H   0  0  0  0  0  0  0  0  0  0  0  0
   -2.8700   -3.8840    0.0000 H   0  0  0  0  0  0  0  0  0  0  0  0
    2.7270    0.0420    0.0000 H   0  0  0  0  0  0  0  0  0  0  0  0
    4.7300    1.5930    0.0000 H   0  0  0  0  0  0  0  0  0  0  0  0
    5.2670    4.5440    0.0000 H   0  0  0  0  0  0  0  0  0  0  0  0
    0.1550    5.4750    0.0000 H   0  0  0  0  0  0  0  0  0  0  0  0
   -0.3820    2.5240    0.0000 H   0  0  0  0  0  0  0  0  0  0  0  0
   -2.9380    2.9900    0.0000 H   0  0  0  0  0  0  0  0  0  0  0  0
   -0.3140   -4.3500    0.0000 H   0  0  0  0  0  0  0  0  0  0  0  0
    1.9730   -6.2910    0.0000 H   0  0  0  0  0  0  0  0  0  0  0  0
    4.7980   -5.2810    0.0000 H   0  0  0  0  0  0  0  0  0  0  0  0
    5.3350   -2.3300    0.0000 H   0  0  0  0  0  0  0  0  0  0  0  0
    3.0730   -0.9240    0.0000 H   0  0  0  0  0  0  0  0  0  0  0  0
  1  2  1  0  0  0  0
  1 27  1  0  0  0  0
  1 28  1  0  0  0  0
  2  3  2  0  0  0  0
  2 20  1  0  0  0  0
  3  4  1  0  0  0  0
  3 29  1  0  0  0  0
  4  5  1  0  0  0  0
  4  6  2  0  0  0  0
  5 30  1  0  0  0  0
  5 31  1  0  0  0  0
  6  7  1  0  0  0  0
  6 19  1  0  0  0  0
  7  8  2  0  0  0  0
  8  9  1  0  0  0  0
  8 21  1  0  0  0  0
  9 10  1  0  0  0  0
  9 18  2  0  0  0  0
 10 11  1  0  0  0  0
 10 32  1  0  0  0  0
 11 12  2  0  0  0  0
 11 17  1  0  0  0  0
 12 13  1  0  0  0  0
 12 33  1  0  0  0  0
 13 14  2  0  0  0  0
 13 34  1  0  0  0  0
 14 15  1  0  0  0  0
 14 16  1  0  0  0  0
 16 17  2  0  0  0  0
 16 35  1  0  0  0  0
 17 36  1  0  0  0  0
 18 19  1  0  0  0  0
 19 20  2  0  0  0  0
 20 37  1  0  0  0  0
 21 22  2  0  0  0  0
 21 26  1  0  0  0  0
 22 23  1  0  0  0  0
 22 38  1  0  0  0  0
 23 24  2  0  0  0  0
 23 39  1  0  0  0  0
 24 25  1  0  0  0  0
 24 40  1  0  0  0  0
 25 26  2  0  0  0  0
 25 41  1  0  0  0  0
 26 42  1  0  0  0  0
M  END
$$$$
