2D_structures\o66_MMV1581550_2D.pdb
 OpenBabel02272408253D

 30 31  0  0  1  0  0  0  0  0999 V2000
   -3.9890    2.5380    0.0000 O   0  0  0  0  0  0  0  0  0  0  0  0
   -3.5370    1.1080    0.0000 C   0  0  1  0  0  0  0  0  0  0  0  0
   -2.1620    1.7060    0.0000 O   0  0  0  0  0  0  0  0  0  0  0  0
   -1.1680    0.5830    0.0000 C   0  0  1  0  0  0  0  0  0  0  0  0
    0.0390   -0.3090    0.0000 C   0  0  0  0  0  0  0  0  0  0  0  0
    1.2450   -1.2000    0.0000 S   0  0  0  0  0  0  0  0  0  0  0  0
    2.6200   -0.6020    0.0000 C   0  0  0  0  0  0  0  0  0  0  0  0
    3.8260   -1.4940    0.0000 C   0  0  0  0  0  0  0  0  0  0  0  0
    5.2010   -0.8950    0.0000 C   0  0  0  0  0  0  0  0  0  0  0  0
    5.3710    0.5950    0.0000 C   0  0  0  0  0  0  0  0  0  0  0  0
    6.7460    1.1940    0.0000 F   0  0  0  0  0  0  0  0  0  0  0  0
    4.1650    1.4870    0.0000 C   0  0  0  0  0  0  0  0  0  0  0  0
    2.7890    0.8880    0.0000 C   0  0  0  0  0  0  0  0  0  0  0  0
   -1.9280   -0.7090    0.0000 C   0  0  1  0  0  0  0  0  0  0  0  0
   -2.4040   -2.1320    0.0000 O   0  0  0  0  0  0  0  0  0  0  0  0
   -3.3930   -0.3850    0.0000 C   0  0  1  0  0  0  0  0  0  0  0  0
   -4.8930   -0.3720    0.0000 O   0  0  0  0  0  0  0  0  0  0  0  0
   -5.4530    2.8630    0.0000 H   0  0  0  0  0  0  0  0  0  0  0  0
   -5.0070    0.8090    0.0000 H   0  0  0  0  0  0  0  0  0  0  0  0
   -0.1540    1.6900    0.0000 H   0  0  0  0  0  0  0  0  0  0  0  0
    0.9300    0.8970    0.0000 H   0  0  0  0  0  0  0  0  0  0  0  0
   -0.3540   -1.0030    0.0000 H   0  0  0  0  0  0  0  0  0  0  0  0
    3.6570   -2.9840    0.0000 H   0  0  0  0  0  0  0  0  0  0  0  0
    6.4070   -1.7870    0.0000 H   0  0  0  0  0  0  0  0  0  0  0  0
    4.3340    2.9770    0.0000 H   0  0  0  0  0  0  0  0  0  0  0  0
    1.5830    1.7800    0.0000 H   0  0  0  0  0  0  0  0  0  0  0  0
   -1.2490   -1.1260    0.0000 H   0  0  0  0  0  0  0  0  0  0  0  0
   -3.8260   -2.6080    0.0000 H   0  0  0  0  0  0  0  0  0  0  0  0
   -3.7430   -1.8440    0.0000 H   0  0  0  0  0  0  0  0  0  0  0  0
   -5.6540   -1.6650    0.0000 H   0  0  0  0  0  0  0  0  0  0  0  0
  1  2  1  0  0  0  0
  1 18  1  0  0  0  0
  2  3  1  0  0  0  0
  2 16  1  0  0  0  0
  2 19  1  6  0  0  0
  3  4  1  0  0  0  0
  4  5  1  0  0  0  0
  4 14  1  0  0  0  0
  4 20  1  6  0  0  0
  5  6  1  0  0  0  0
  5 21  1  0  0  0  0
  5 22  1  0  0  0  0
  6  7  1  0  0  0  0
  7  8  2  0  0  0  0
  7 13  1  0  0  0  0
  8  9  1  0  0  0  0
  8 23  1  0  0  0  0
  9 10  2  0  0  0  0
  9 24  1  0  0  0  0
 10 11  1  0  0  0  0
 10 12  1  0  0  0  0
 12 13  2  0  0  0  0
 12 25  1  0  0  0  0
 13 26  1  0  0  0  0
 14 15  1  0  0  0  0
 14 16  1  0  0  0  0
 14 27  1  6  0  0  0
 15 28  1  0  0  0  0
 16 17  1  0  0  0  0
 16 29  1  6  0  0  0
 17 30  1  0  0  0  0
M  END
$$$$
