2D_structures\o67_MMV1581546_2D.pdb
 OpenBabel02272408253D

 30 32  0  0  0  0  0  0  0  0999 V2000
   -6.5050    1.3950    0.0000 O   0  0  0  0  0  0  0  0  0  0  0  0
   -5.2010    0.6540    0.0000 C   0  0  0  0  0  0  0  0  0  0  0  0
   -5.1900   -0.8460    0.0000 N   0  0  0  0  0  0  0  0  0  0  0  0
   -3.8860   -1.5870    0.0000 C   0  0  0  0  0  0  0  0  0  0  0  0
   -3.8760   -3.0870    0.0000 O   0  0  0  0  0  0  0  0  0  0  0  0
   -2.5920   -0.8280    0.0000 C   0  0  0  0  0  0  0  0  0  0  0  0
   -2.6030    0.6720    0.0000 C   0  0  0  0  0  0  0  0  0  0  0  0
   -1.3090    1.4310    0.0000 N   0  0  0  0  0  0  0  0  0  0  0  0
   -0.0050    0.6890    0.0000 C   0  0  0  0  0  0  0  0  0  0  0  0
    0.0060   -0.8100    0.0000 C   0  0  0  0  0  0  0  0  0  0  0  0
    1.3100   -1.5520    0.0000 C   0  0  0  0  0  0  0  0  0  0  0  0
    2.6040   -0.7930    0.0000 C   0  0  0  0  0  0  0  0  0  0  0  0
    3.9080   -1.5340    0.0000 C   0  0  0  0  0  0  0  0  0  0  0  0
    5.2020   -0.7750    0.0000 C   0  0  0  0  0  0  0  0  0  0  0  0
    5.1910    0.7250    0.0000 C   0  0  0  0  0  0  0  0  0  0  0  0
    3.8870    1.4660    0.0000 C   0  0  0  0  0  0  0  0  0  0  0  0
    2.5930    0.7070    0.0000 C   0  0  0  0  0  0  0  0  0  0  0  0
    1.2890    1.4480    0.0000 C   0  0  0  0  0  0  0  0  0  0  0  0
   -3.9070    1.4130    0.0000 N   0  0  0  0  0  0  0  0  0  0  0  0
   -6.4840   -1.6050    0.0000 H   0  0  0  0  0  0  0  0  0  0  0  0
   -1.8020   -1.4150    0.0000 H   0  0  0  0  0  0  0  0  0  0  0  0
   -1.3190    2.9300    0.0000 H   0  0  0  0  0  0  0  0  0  0  0  0
   -0.7760   -1.4080    0.0000 H   0  0  0  0  0  0  0  0  0  0  0  0
    1.3200   -3.0510    0.0000 H   0  0  0  0  0  0  0  0  0  0  0  0
    3.9180   -3.0340    0.0000 H   0  0  0  0  0  0  0  0  0  0  0  0
    6.5060   -1.5160    0.0000 H   0  0  0  0  0  0  0  0  0  0  0  0
    6.4850    1.4840    0.0000 H   0  0  0  0  0  0  0  0  0  0  0  0
    3.8770    2.9660    0.0000 H   0  0  0  0  0  0  0  0  0  0  0  0
    1.2790    2.9480    0.0000 H   0  0  0  0  0  0  0  0  0  0  0  0
   -3.9170    2.9130    0.0000 H   0  0  0  0  0  0  0  0  0  0  0  0
  1  2  2  0  0  0  0
  2  3  1  0  0  0  0
  2 19  1  0  0  0  0
  3  4  1  0  0  0  0
  3 20  1  0  0  0  0
  4  5  2  0  0  0  0
  4  6  1  0  0  0  0
  6  7  2  0  0  0  0
  6 21  1  0  0  0  0
  7  8  1  0  0  0  0
  7 19  1  0  0  0  0
  8  9  1  0  0  0  0
  8 22  1  0  0  0  0
  9 10  2  0  0  0  0
  9 18  1  0  0  0  0
 10 11  1  0  0  0  0
 10 23  1  0  0  0  0
 11 12  2  0  0  0  0
 11 24  1  0  0  0  0
 12 13  1  0  0  0  0
 12 17  1  0  0  0  0
 13 14  2  0  0  0  0
 13 25  1  0  0  0  0
 14 15  1  0  0  0  0
 14 26  1  0  0  0  0
 15 16  2  0  0  0  0
 15 27  1  0  0  0  0
 16 17  1  0  0  0  0
 16 28  1  0  0  0  0
 17 18  2  0  0  0  0
 18 29  1  0  0  0  0
 19 30  1  0  0  0  0
M  END
$$$$
