2D_structures\o6_MMV000725_2D.pdb
 OpenBabel02272408253D

 58 60  0  0  1  0  0  0  0  0999 V2000
    8.9990   -3.3240    0.0000 Cl  0  0  0  0  0  0  0  0  0  0  0  0
    8.8160   -1.8360    0.0000 C   0  0  0  0  0  0  0  0  0  0  0  0
    7.4350   -1.2500    0.0000 C   0  0  0  0  0  0  0  0  0  0  0  0
    6.2370   -2.1520    0.0000 O   0  0  0  0  0  0  0  0  0  0  0  0
    4.8560   -1.5660    0.0000 C   0  0  0  0  0  0  0  0  0  0  0  0
    3.4760   -0.9800    0.0000 C   0  0  1  0  0  0  0  0  0  0  0  0
    2.8900   -2.3610    0.0000 O   0  0  0  0  0  0  0  0  0  0  0  0
    2.0950   -0.3950    0.0000 C   0  0  0  0  0  0  0  0  0  0  0  0
    0.7140    0.1910    0.0000 N   0  0  0  0  0  0  0  0  0  0  0  0
   -0.5720   -0.5810    0.0000 C   0  0  0  0  0  0  0  0  0  0  0  0
   -0.7020   -2.0760    0.0000 N   0  0  0  0  0  0  0  0  0  0  0  0
   -1.7040    0.4030    0.0000 N   0  0  0  0  0  0  0  0  0  0  0  0
   -3.1650    0.0650    0.0000 C   0  0  0  0  0  0  0  0  0  0  0  0
   -4.6270   -0.2720    0.0000 C   0  0  0  0  0  0  0  0  0  0  0  0
   -6.0880   -0.6100    0.0000 N   0  0  0  0  0  0  0  0  0  0  0  0
   -6.5270   -2.0440    0.0000 C   0  0  0  0  0  0  0  0  0  0  0  0
   -6.9650   -3.4790    0.0000 C   0  0  0  0  0  0  0  0  0  0  0  0
   -7.1110    0.4870    0.0000 C   0  0  0  0  0  0  0  0  0  0  0  0
   -8.1350    1.5840    0.0000 C   0  0  0  0  0  0  0  0  0  0  0  0
   -1.1180    1.7840    0.0000 C   0  0  0  0  0  0  0  0  0  0  0  0
    0.3760    1.6530    0.0000 C   0  0  0  0  0  0  0  0  0  0  0  0
    1.2370    2.8820    0.0000 C   0  0  0  0  0  0  0  0  0  0  0  0
    0.6030    4.2410    0.0000 C   0  0  0  0  0  0  0  0  0  0  0  0
   -0.8920    4.3720    0.0000 C   0  0  0  0  0  0  0  0  0  0  0  0
   -1.7520    3.1430    0.0000 C   0  0  0  0  0  0  0  0  0  0  0  0
    7.2520    0.2390    0.0000 C   0  0  0  0  0  0  0  0  0  0  0  0
    8.4500    1.1420    0.0000 C   0  0  0  0  0  0  0  0  0  0  0  0
    9.8310    0.5560    0.0000 C   0  0  0  0  0  0  0  0  0  0  0  0
   10.0140   -0.9330    0.0000 C   0  0  0  0  0  0  0  0  0  0  0  0
   11.0290    1.4590    0.0000 Cl  0  0  0  0  0  0  0  0  0  0  0  0
    4.4430   -3.0080    0.0000 H   0  0  0  0  0  0  0  0  0  0  0  0
    5.4420   -0.1860    0.0000 H   0  0  0  0  0  0  0  0  0  0  0  0
    4.0620    0.4000    0.0000 H   0  0  0  0  0  0  0  0  0  0  0  0
    3.6400   -3.6600    0.0000 H   0  0  0  0  0  0  0  0  0  0  0  0
    2.6810    0.9860    0.0000 H   0  0  0  0  0  0  0  0  0  0  0  0
    1.5090   -1.7750    0.0000 H   0  0  0  0  0  0  0  0  0  0  0  0
   -2.0620   -2.7100    0.0000 H   0  0  0  0  0  0  0  0  0  0  0  0
   -3.5030    1.5270    0.0000 H   0  0  0  0  0  0  0  0  0  0  0  0
   -2.8280   -1.3960    0.0000 H   0  0  0  0  0  0  0  0  0  0  0  0
   -4.9640    1.1890    0.0000 H   0  0  0  0  0  0  0  0  0  0  0  0
   -4.2890   -1.7340    0.0000 H   0  0  0  0  0  0  0  0  0  0  0  0
   -5.0920   -2.4830    0.0000 H   0  0  0  0  0  0  0  0  0  0  0  0
   -7.9610   -1.6060    0.0000 H   0  0  0  0  0  0  0  0  0  0  0  0
   -7.4040   -4.9130    0.0000 H   0  0  0  0  0  0  0  0  0  0  0  0
   -5.5310   -3.9170    0.0000 H   0  0  0  0  0  0  0  0  0  0  0  0
   -8.4000   -3.0400    0.0000 H   0  0  0  0  0  0  0  0  0  0  0  0
   -6.0150    1.5100    0.0000 H   0  0  0  0  0  0  0  0  0  0  0  0
   -8.2080   -0.5360    0.0000 H   0  0  0  0  0  0  0  0  0  0  0  0
   -9.1580    2.6810    0.0000 H   0  0  0  0  0  0  0  0  0  0  0  0
   -7.0380    2.6070    0.0000 H   0  0  0  0  0  0  0  0  0  0  0  0
   -9.2320    0.5610    0.0000 H   0  0  0  0  0  0  0  0  0  0  0  0
    2.7310    2.7510    0.0000 H   0  0  0  0  0  0  0  0  0  0  0  0
    1.4630    5.4700    0.0000 H   0  0  0  0  0  0  0  0  0  0  0  0
   -1.5260    5.7310    0.0000 H   0  0  0  0  0  0  0  0  0  0  0  0
   -3.2460    3.2740    0.0000 H   0  0  0  0  0  0  0  0  0  0  0  0
    5.8710    0.8250    0.0000 H   0  0  0  0  0  0  0  0  0  0  0  0
    8.2670    2.6310    0.0000 H   0  0  0  0  0  0  0  0  0  0  0  0
   11.3950   -1.5190    0.0000 H   0  0  0  0  0  0  0  0  0  0  0  0
  1  2  1  0  0  0  0
  2  3  2  0  0  0  0
  2 29  1  0  0  0  0
  3  4  1  0  0  0  0
  3 26  1  0  0  0  0
  4  5  1  0  0  0  0
  5  6  1  0  0  0  0
  5 31  1  0  0  0  0
  5 32  1  0  0  0  0
  6  7  1  0  0  0  0
  6  8  1  0  0  0  0
  6 33  1  6  0  0  0
  7 34  1  0  0  0  0
  8  9  1  0  0  0  0
  8 35  1  0  0  0  0
  8 36  1  0  0  0  0
  9 10  1  0  0  0  0
  9 21  1  0  0  0  0
 10 11  2  0  0  0  0
 10 12  1  0  0  0  0
 11 37  1  0  0  0  0
 12 13  1  0  0  0  0
 12 20  1  0  0  0  0
 13 14  1  0  0  0  0
 13 38  1  0  0  0  0
 13 39  1  0  0  0  0
 14 15  1  0  0  0  0
 14 40  1  0  0  0  0
 14 41  1  0  0  0  0
 15 16  1  0  0  0  0
 15 18  1  0  0  0  0
 16 17  1  0  0  0  0
 16 42  1  0  0  0  0
 16 43  1  0  0  0  0
 17 44  1  0  0  0  0
 17 45  1  0  0  0  0
 17 46  1  0  0  0  0
 18 19  1  0  0  0  0
 18 47  1  0  0  0  0
 18 48  1  0  0  0  0
 19 49  1  0  0  0  0
 19 50  1  0  0  0  0
 19 51  1  0  0  0  0
 20 21  2  0  0  0  0
 20 25  1  0  0  0  0
 21 22  1  0  0  0  0
 22 23  2  0  0  0  0
 22 52  1  0  0  0  0
 23 24  1  0  0  0  0
 23 53  1  0  0  0  0
 24 25  2  0  0  0  0
 24 54  1  0  0  0  0
 25 55  1  0  0  0  0
 26 27  2  0  0  0  0
 26 56  1  0  0  0  0
 27 28  1  0  0  0  0
 27 57  1  0  0  0  0
 28 29  2  0  0  0  0
 28 30  1  0  0  0  0
 29 58  1  0  0  0  0
M  END
$$$$
