2D_structures\o71_MMV811071_2D.pdb
 OpenBabel02272408253D

 35 36  0  0  0  0  0  0  0  0999 V2000
   -5.9630   -0.6320    0.0000 C   0  0  0  0  0  0  0  0  0  0  0  0
   -4.8260    0.3480    0.0000 N   0  0  0  0  0  0  0  0  0  0  0  0
   -5.1060    1.8210    0.0000 C   0  0  0  0  0  0  0  0  0  0  0  0
   -3.4100   -0.1460    0.0000 C   0  0  0  0  0  0  0  0  0  0  0  0
   -1.9940   -0.6410    0.0000 C   0  0  0  0  0  0  0  0  0  0  0  0
   -0.5780   -1.1350    0.0000 N   0  0  0  0  0  0  0  0  0  0  0  0
    0.5580   -0.1560    0.0000 C   0  0  0  0  0  0  0  0  0  0  0  0
    0.2780    1.3180    0.0000 O   0  0  0  0  0  0  0  0  0  0  0  0
    1.9750   -0.6500    0.0000 C   0  0  0  0  0  0  0  0  0  0  0  0
    2.2550   -2.1230    0.0000 C   0  0  0  0  0  0  0  0  0  0  0  0
    3.6710   -2.6180    0.0000 C   0  0  0  0  0  0  0  0  0  0  0  0
    4.8070   -1.6380    0.0000 C   0  0  0  0  0  0  0  0  0  0  0  0
    4.5270   -0.1650    0.0000 C   0  0  0  0  0  0  0  0  0  0  0  0
    5.6630    0.8150    0.0000 C   0  0  0  0  0  0  0  0  0  0  0  0
    5.3830    2.2880    0.0000 C   0  0  0  0  0  0  0  0  0  0  0  0
    3.9670    2.7830    0.0000 C   0  0  0  0  0  0  0  0  0  0  0  0
    2.8310    1.8030    0.0000 N   0  0  0  0  0  0  0  0  0  0  0  0
    3.1110    0.3300    0.0000 C   0  0  0  0  0  0  0  0  0  0  0  0
   -7.0990   -1.6110    0.0000 H   0  0  0  0  0  0  0  0  0  0  0  0
   -6.9420    0.5050    0.0000 H   0  0  0  0  0  0  0  0  0  0  0  0
   -4.9830   -1.7680    0.0000 H   0  0  0  0  0  0  0  0  0  0  0  0
   -5.3870    3.2950    0.0000 H   0  0  0  0  0  0  0  0  0  0  0  0
   -6.5800    1.5410    0.0000 H   0  0  0  0  0  0  0  0  0  0  0  0
   -3.6330    2.1010    0.0000 H   0  0  0  0  0  0  0  0  0  0  0  0
   -2.9160    1.2700    0.0000 H   0  0  0  0  0  0  0  0  0  0  0  0
   -3.9040   -1.5630    0.0000 H   0  0  0  0  0  0  0  0  0  0  0  0
   -1.5000    0.7760    0.0000 H   0  0  0  0  0  0  0  0  0  0  0  0
   -2.4880   -2.0570    0.0000 H   0  0  0  0  0  0  0  0  0  0  0  0
   -0.2980   -2.6090    0.0000 H   0  0  0  0  0  0  0  0  0  0  0  0
    1.1190   -3.1030    0.0000 H   0  0  0  0  0  0  0  0  0  0  0  0
    3.9510   -4.0910    0.0000 H   0  0  0  0  0  0  0  0  0  0  0  0
    6.2230   -2.1330    0.0000 H   0  0  0  0  0  0  0  0  0  0  0  0
    7.0790    0.3200    0.0000 H   0  0  0  0  0  0  0  0  0  0  0  0
    6.5190    3.2680    0.0000 H   0  0  0  0  0  0  0  0  0  0  0  0
    3.6870    4.2560    0.0000 H   0  0  0  0  0  0  0  0  0  0  0  0
  1  2  1  0  0  0  0
  1 19  1  0  0  0  0
  1 20  1  0  0  0  0
  1 21  1  0  0  0  0
  2  3  1  0  0  0  0
  2  4  1  0  0  0  0
  3 22  1  0  0  0  0
  3 23  1  0  0  0  0
  3 24  1  0  0  0  0
  4  5  1  0  0  0  0
  4 25  1  0  0  0  0
  4 26  1  0  0  0  0
  5  6  1  0  0  0  0
  5 27  1  0  0  0  0
  5 28  1  0  0  0  0
  6  7  1  0  0  0  0
  6 29  1  0  0  0  0
  7  8  2  0  0  0  0
  7  9  1  0  0  0  0
  9 10  2  0  0  0  0
  9 18  1  0  0  0  0
 10 11  1  0  0  0  0
 10 30  1  0  0  0  0
 11 12  2  0  0  0  0
 11 31  1  0  0  0  0
 12 13  1  0  0  0  0
 12 32  1  0  0  0  0
 13 14  2  0  0  0  0
 13 18  1  0  0  0  0
 14 15  1  0  0  0  0
 14 33  1  0  0  0  0
 15 16  2  0  0  0  0
 15 34  1  0  0  0  0
 16 17  1  0  0  0  0
 16 35  1  0  0  0  0
 17 18  2  0  0  0  0
M  END
$$$$
