2D_structures\o73_MMV1549626_2D.pdb
 OpenBabel02272408253D

 56 59  0  0  0  0  0  0  0  0999 V2000
    6.5120   -0.5080    0.0000 C   0  0  0  0  0  0  0  0  0  0  0  0
    5.0940   -0.9970    0.0000 C   0  0  0  0  0  0  0  0  0  0  0  0
    5.8220   -2.3090    0.0000 C   0  0  0  0  0  0  0  0  0  0  0  0
    3.9290   -1.9420    0.0000 C   0  0  0  0  0  0  0  0  0  0  0  0
    2.5290   -1.4050    0.0000 C   0  0  0  0  0  0  0  0  0  0  0  0
    2.2930    0.0760    0.0000 C   0  0  0  0  0  0  0  0  0  0  0  0
    3.4580    1.0210    0.0000 C   0  0  0  0  0  0  0  0  0  0  0  0
    4.8590    0.4840    0.0000 O   0  0  0  0  0  0  0  0  0  0  0  0
    0.8920    0.6130    0.0000 C   0  0  0  0  0  0  0  0  0  0  0  0
   -0.2730   -0.3310    0.0000 N   0  0  0  0  0  0  0  0  0  0  0  0
   -0.0370   -1.8130    0.0000 C   0  0  0  0  0  0  0  0  0  0  0  0
   -1.2030   -2.7570    0.0000 S   0  0  0  0  0  0  0  0  0  0  0  0
   -2.6030   -2.2210    0.0000 C   0  0  0  0  0  0  0  0  0  0  0  0
   -4.0040   -1.6840    0.0000 C   0  0  0  0  0  0  0  0  0  0  0  0
   -5.4050   -1.1470    0.0000 C   0  0  0  0  0  0  0  0  0  0  0  0
   -5.6400    0.3340    0.0000 C   0  0  0  0  0  0  0  0  0  0  0  0
   -7.0410    0.8710    0.0000 C   0  0  0  0  0  0  0  0  0  0  0  0
   -8.2060   -0.0740    0.0000 C   0  0  0  0  0  0  0  0  0  0  0  0
   -7.9700   -1.5550    0.0000 C   0  0  0  0  0  0  0  0  0  0  0  0
   -6.5700   -2.0920    0.0000 C   0  0  0  0  0  0  0  0  0  0  0  0
    1.3630   -2.3500    0.0000 C   0  0  0  0  0  0  0  0  0  0  0  0
    1.5990   -3.8310    0.0000 C   0  0  0  0  0  0  0  0  0  0  0  0
    1.8340   -5.3120    0.0000 N   0  0  0  0  0  0  0  0  0  0  0  0
    0.6570    2.0950    0.0000 N   0  0  0  0  0  0  0  0  0  0  0  0
    1.8220    3.0390    0.0000 C   0  0  0  0  0  0  0  0  0  0  0  0
    1.5870    4.5210    0.0000 C   0  0  0  0  0  0  0  0  0  0  0  0
    0.1860    5.0570    0.0000 O   0  0  0  0  0  0  0  0  0  0  0  0
   -0.9790    4.1130    0.0000 C   0  0  0  0  0  0  0  0  0  0  0  0
   -0.7440    2.6310    0.0000 C   0  0  0  0  0  0  0  0  0  0  0  0
    7.9300   -0.0190    0.0000 H   0  0  0  0  0  0  0  0  0  0  0  0
    6.0230    0.9100    0.0000 H   0  0  0  0  0  0  0  0  0  0  0  0
    6.8620   -1.2240    0.0000 H   0  0  0  0  0  0  0  0  0  0  0  0
    6.5500   -3.6200    0.0000 H   0  0  0  0  0  0  0  0  0  0  0  0
    6.5610   -2.0100    0.0000 H   0  0  0  0  0  0  0  0  0  0  0  0
    4.6090   -3.1910    0.0000 H   0  0  0  0  0  0  0  0  0  0  0  0
    4.9330   -3.0560    0.0000 H   0  0  0  0  0  0  0  0  0  0  0  0
    3.1570   -3.2280    0.0000 H   0  0  0  0  0  0  0  0  0  0  0  0
    2.2140    1.8590    0.0000 H   0  0  0  0  0  0  0  0  0  0  0  0
    4.2300    2.3070    0.0000 H   0  0  0  0  0  0  0  0  0  0  0  0
   -2.0660   -0.8200    0.0000 H   0  0  0  0  0  0  0  0  0  0  0  0
   -3.1400   -3.6210    0.0000 H   0  0  0  0  0  0  0  0  0  0  0  0
   -4.5410   -3.0850    0.0000 H   0  0  0  0  0  0  0  0  0  0  0  0
   -3.4670   -0.2830    0.0000 H   0  0  0  0  0  0  0  0  0  0  0  0
   -4.4750    1.2790    0.0000 H   0  0  0  0  0  0  0  0  0  0  0  0
   -7.2760    2.3530    0.0000 H   0  0  0  0  0  0  0  0  0  0  0  0
   -9.6070    0.4630    0.0000 H   0  0  0  0  0  0  0  0  0  0  0  0
   -9.1360   -2.5000    0.0000 H   0  0  0  0  0  0  0  0  0  0  0  0
   -6.3340   -3.5730    0.0000 H   0  0  0  0  0  0  0  0  0  0  0  0
    3.2400    3.5280    0.0000 H   0  0  0  0  0  0  0  0  0  0  0  0
    2.3850    1.6490    0.0000 H   0  0  0  0  0  0  0  0  0  0  0  0
    1.8720    5.9930    0.0000 H   0  0  0  0  0  0  0  0  0  0  0  0
    3.0860    4.4950    0.0000 H   0  0  0  0  0  0  0  0  0  0  0  0
   -2.3970    3.6240    0.0000 H   0  0  0  0  0  0  0  0  0  0  0  0
   -1.7070    5.4240    0.0000 H   0  0  0  0  0  0  0  0  0  0  0  0
   -1.0290    1.1590    0.0000 H   0  0  0  0  0  0  0  0  0  0  0  0
   -2.2440    2.6570    0.0000 H   0  0  0  0  0  0  0  0  0  0  0  0
  1  2  1  0  0  0  0
  1 30  1  0  0  0  0
  1 31  1  0  0  0  0
  1 32  1  0  0  0  0
  2  3  1  0  0  0  0
  2  4  1  0  0  0  0
  2  8  1  0  0  0  0
  3 33  1  0  0  0  0
  3 34  1  0  0  0  0
  3 35  1  0  0  0  0
  4  5  1  0  0  0  0
  4 36  1  0  0  0  0
  4 37  1  0  0  0  0
  5  6  2  0  0  0  0
  5 21  1  0  0  0  0
  6  7  1  0  0  0  0
  6  9  1  0  0  0  0
  7  8  1  0  0  0  0
  7 38  1  0  0  0  0
  7 39  1  0  0  0  0
  9 10  2  0  0  0  0
  9 24  1  0  0  0  0
 10 11  1  0  0  0  0
 11 12  1  0  0  0  0
 11 21  2  0  0  0  0
 12 13  1  0  0  0  0
 13 14  1  0  0  0  0
 13 40  1  0  0  0  0
 13 41  1  0  0  0  0
 14 15  1  0  0  0  0
 14 42  1  0  0  0  0
 14 43  1  0  0  0  0
 15 16  2  0  0  0  0
 15 20  1  0  0  0  0
 16 17  1  0  0  0  0
 16 44  1  0  0  0  0
 17 18  2  0  0  0  0
 17 45  1  0  0  0  0
 18 19  1  0  0  0  0
 18 46  1  0  0  0  0
 19 20  2  0  0  0  0
 19 47  1  0  0  0  0
 20 48  1  0  0  0  0
 21 22  1  0  0  0  0
 22 23  3  0  0  0  0
 24 25  1  0  0  0  0
 24 29  1  0  0  0  0
 25 26  1  0  0  0  0
 25 49  1  0  0  0  0
 25 50  1  0  0  0  0
 26 27  1  0  0  0  0
 26 51  1  0  0  0  0
 26 52  1  0  0  0  0
 27 28  1  0  0  0  0
 28 29  1  0  0  0  0
 28 53  1  0  0  0  0
 28 54  1  0  0  0  0
 29 55  1  0  0  0  0
 29 56  1  0  0  0  0
M  END
$$$$
