2D_structures\o74_MMV1578559_2D.pdb
 OpenBabel02272408253D

 45 47  0  0  1  0  0  0  0  0999 V2000
    3.0290   -3.4900    0.0000 C   0  0  0  0  0  0  0  0  0  0  0  0
    1.5290   -3.5000    0.0000 O   0  0  0  0  0  0  0  0  0  0  0  0
    0.7710   -2.2060    0.0000 C   0  0  1  0  0  0  0  0  0  0  0  0
    2.0650   -1.4470    0.0000 N   0  0  0  0  0  0  0  0  0  0  0  0
    2.0540    0.0530    0.0000 C   0  0  0  0  0  0  0  0  0  0  0  0
    0.9680    1.0870    0.0000 O   0  0  0  0  0  0  0  0  0  0  0  0
    3.3480    0.8110    0.0000 C   0  0  0  0  0  0  0  0  0  0  0  0
    4.6420    1.5700    0.0000 C   0  0  0  0  0  0  0  0  0  0  0  0
    6.0170    0.9690    0.0000 C   0  0  0  0  0  0  0  0  0  0  0  0
    7.0130    2.0910    0.0000 C   0  0  0  0  0  0  0  0  0  0  0  0
    6.2540    3.3850    0.0000 C   0  0  0  0  0  0  0  0  0  0  0  0
    4.7890    3.0630    0.0000 S   0  0  0  0  0  0  0  0  0  0  0  0
    0.0120   -0.9120    0.0000 C   0  0  1  0  0  0  0  0  0  0  0  0
    0.0020    0.5880    0.0000 S   0  0  0  0  0  0  0  0  0  0  0  0
   -1.3020    1.3290    0.0000 C   0  0  0  0  0  0  0  0  0  0  0  0
   -2.5960    0.5700    0.0000 C   0  0  0  0  0  0  0  0  0  0  0  0
   -2.5860   -0.9300    0.0000 C   0  0  0  0  0  0  0  0  0  0  0  0
   -1.2820   -1.6710    0.0000 N   0  0  0  0  0  0  0  0  0  0  0  0
   -0.5230   -2.9650    0.0000 C   0  0  0  0  0  0  0  0  0  0  0  0
   -0.9020   -4.4160    0.0000 O   0  0  0  0  0  0  0  0  0  0  0  0
   -3.8800   -1.6880    0.0000 C   0  0  0  0  0  0  0  0  0  0  0  0
   -3.8700   -3.1880    0.0000 O   0  0  0  0  0  0  0  0  0  0  0  0
   -5.1840   -0.9470    0.0000 O   0  0  0  0  0  0  0  0  0  0  0  0
   -3.9000    1.3110    0.0000 C   0  0  0  0  0  0  0  0  0  0  0  0
   -5.2040    2.0530    0.0000 O   0  0  0  0  0  0  0  0  0  0  0  0
   -6.4980    1.2940    0.0000 C   0  0  0  0  0  0  0  0  0  0  0  0
   -6.4880   -0.2060    0.0000 O   0  0  0  0  0  0  0  0  0  0  0  0
   -7.8030    2.0350    0.0000 N   0  0  0  0  0  0  0  0  0  0  0  0
    4.5290   -3.4800    0.0000 H   0  0  0  0  0  0  0  0  0  0  0  0
    3.0390   -4.9900    0.0000 H   0  0  0  0  0  0  0  0  0  0  0  0
    3.1310   -2.6100    0.0000 H   0  0  0  0  0  0  0  0  0  0  0  0
    2.8000   -1.7540    0.0000 H   0  0  0  0  0  0  0  0  0  0  0  0
    2.5900    2.1050    0.0000 H   0  0  0  0  0  0  0  0  0  0  0  0
    4.1070   -0.4830    0.0000 H   0  0  0  0  0  0  0  0  0  0  0  0
    6.3380   -0.4960    0.0000 H   0  0  0  0  0  0  0  0  0  0  0  0
    8.5060    1.9440    0.0000 H   0  0  0  0  0  0  0  0  0  0  0  0
    6.8550    4.7590    0.0000 H   0  0  0  0  0  0  0  0  0  0  0  0
    1.4580   -0.5140    0.0000 H   0  0  0  0  0  0  0  0  0  0  0  0
   -2.1280    2.5820    0.0000 H   0  0  0  0  0  0  0  0  0  0  0  0
   -0.3460    2.4850    0.0000 H   0  0  0  0  0  0  0  0  0  0  0  0
   -6.4780   -1.7060    0.0000 H   0  0  0  0  0  0  0  0  0  0  0  0
   -3.3240    2.6960    0.0000 H   0  0  0  0  0  0  0  0  0  0  0  0
   -4.6420    0.0070    0.0000 H   0  0  0  0  0  0  0  0  0  0  0  0
   -9.0960    1.2760    0.0000 H   0  0  0  0  0  0  0  0  0  0  0  0
   -7.8130    3.5350    0.0000 H   0  0  0  0  0  0  0  0  0  0  0  0
  1  2  1  0  0  0  0
  1 29  1  0  0  0  0
  1 30  1  0  0  0  0
  1 31  1  0  0  0  0
  3  2  1  6  0  0  0
  3  4  1  0  0  0  0
  3 13  1  0  0  0  0
  3 19  1  0  0  0  0
  4  5  1  0  0  0  0
  4 32  1  0  0  0  0
  5  6  2  0  0  0  0
  5  7  1  0  0  0  0
  7  8  1  0  0  0  0
  7 33  1  0  0  0  0
  7 34  1  0  0  0  0
  8  9  2  0  0  0  0
  8 12  1  0  0  0  0
  9 10  1  0  0  0  0
  9 35  1  0  0  0  0
 10 11  2  0  0  0  0
 10 36  1  0  0  0  0
 11 12  1  0  0  0  0
 11 37  1  0  0  0  0
 13 14  1  0  0  0  0
 13 18  1  0  0  0  0
 13 38  1  1  0  0  0
 14 15  1  0  0  0  0
 15 16  1  0  0  0  0
 15 39  1  0  0  0  0
 15 40  1  0  0  0  0
 16 17  2  0  0  0  0
 16 24  1  0  0  0  0
 17 18  1  0  0  0  0
 17 21  1  0  0  0  0
 18 19  1  0  0  0  0
 19 20  2  0  0  0  0
 21 22  2  0  0  0  0
 21 23  1  0  0  0  0
 23 41  1  0  0  0  0
 24 25  1  0  0  0  0
 24 42  1  0  0  0  0
 24 43  1  0  0  0  0
 25 26  1  0  0  0  0
 26 27  2  0  0  0  0
 26 28  1  0  0  0  0
 28 44  1  0  0  0  0
 28 45  1  0  0  0  0
M  END
$$$$
