2D_structures\o75_MMV1578579_2D.pdb
 OpenBabel02272408253D

 51 53  0  0  0  0  0  0  0  0999 V2000
   -5.0990   -3.4380    0.0000 C   0  0  0  0  0  0  0  0  0  0  0  0
   -4.4720   -2.0760    0.0000 O   0  0  0  0  0  0  0  0  0  0  0  0
   -5.3380   -0.8510    0.0000 C   0  0  0  0  0  0  0  0  0  0  0  0
   -6.8320   -0.9890    0.0000 C   0  0  0  0  0  0  0  0  0  0  0  0
   -7.6980    0.2350    0.0000 C   0  0  0  0  0  0  0  0  0  0  0  0
   -7.0710    1.5980    0.0000 C   0  0  0  0  0  0  0  0  0  0  0  0
   -7.9370    2.8220    0.0000 C   0  0  0  0  0  0  0  0  0  0  0  0
   -5.5770    1.7360    0.0000 C   0  0  0  0  0  0  0  0  0  0  0  0
   -4.7110    0.5110    0.0000 C   0  0  0  0  0  0  0  0  0  0  0  0
   -3.2170    0.6490    0.0000 N   0  0  0  0  0  0  0  0  0  0  0  0
   -2.3510   -0.5750    0.0000 C   0  0  0  0  0  0  0  0  0  0  0  0
   -2.9780   -1.9380    0.0000 O   0  0  0  0  0  0  0  0  0  0  0  0
   -0.8570   -0.4370    0.0000 C   0  0  0  0  0  0  0  0  0  0  0  0
    0.0090   -1.6620    0.0000 C   0  0  0  0  0  0  0  0  0  0  0  0
    1.5030   -1.5240    0.0000 C   0  0  0  0  0  0  0  0  0  0  0  0
    2.1300   -0.1610    0.0000 C   0  0  0  0  0  0  0  0  0  0  0  0
    1.2640    1.0630    0.0000 C   0  0  0  0  0  0  0  0  0  0  0  0
   -0.2300    0.9250    0.0000 C   0  0  0  0  0  0  0  0  0  0  0  0
    3.6240   -0.0230    0.0000 S   0  0  0  0  0  0  0  0  0  0  0  0
    3.3050    1.4420    0.0000 O   0  0  0  0  0  0  0  0  0  0  0  0
    3.5790   -1.5230    0.0000 O   0  0  0  0  0  0  0  0  0  0  0  0
    5.1170    0.1150    0.0000 N   0  0  0  0  0  0  0  0  0  0  0  0
    5.7450    1.4770    0.0000 C   0  0  0  0  0  0  0  0  0  0  0  0
    7.2380    1.6150    0.0000 C   0  0  0  0  0  0  0  0  0  0  0  0
    8.1050    0.3910    0.0000 C   0  0  0  0  0  0  0  0  0  0  0  0
    7.4770   -0.9720    0.0000 C   0  0  0  0  0  0  0  0  0  0  0  0
    5.9840   -1.1100    0.0000 C   0  0  0  0  0  0  0  0  0  0  0  0
   -5.7260   -4.8010    0.0000 H   0  0  0  0  0  0  0  0  0  0  0  0
   -3.7360   -4.0660    0.0000 H   0  0  0  0  0  0  0  0  0  0  0  0
   -6.4620   -2.8110    0.0000 H   0  0  0  0  0  0  0  0  0  0  0  0
   -7.4590   -2.3520    0.0000 H   0  0  0  0  0  0  0  0  0  0  0  0
   -9.1920    0.0970    0.0000 H   0  0  0  0  0  0  0  0  0  0  0  0
   -8.8030    4.0470    0.0000 H   0  0  0  0  0  0  0  0  0  0  0  0
   -6.7120    3.6890    0.0000 H   0  0  0  0  0  0  0  0  0  0  0  0
   -9.1620    1.9560    0.0000 H   0  0  0  0  0  0  0  0  0  0  0  0
   -4.9500    3.0980    0.0000 H   0  0  0  0  0  0  0  0  0  0  0  0
   -2.5900    2.0120    0.0000 H   0  0  0  0  0  0  0  0  0  0  0  0
   -0.6180   -3.0240    0.0000 H   0  0  0  0  0  0  0  0  0  0  0  0
    2.3690   -2.7480    0.0000 H   0  0  0  0  0  0  0  0  0  0  0  0
    1.8910    2.4260    0.0000 H   0  0  0  0  0  0  0  0  0  0  0  0
   -1.0960    2.1500    0.0000 H   0  0  0  0  0  0  0  0  0  0  0  0
    5.8680    2.9720    0.0000 H   0  0  0  0  0  0  0  0  0  0  0  0
    4.3510    2.0320    0.0000 H   0  0  0  0  0  0  0  0  0  0  0  0
    8.5950    2.2560    0.0000 H   0  0  0  0  0  0  0  0  0  0  0  0
    6.8430    3.0620    0.0000 H   0  0  0  0  0  0  0  0  0  0  0  0
    9.3380   -0.4640    0.0000 H   0  0  0  0  0  0  0  0  0  0  0  0
    9.1600    1.4560    0.0000 H   0  0  0  0  0  0  0  0  0  0  0  0
    7.3540   -2.4670    0.0000 H   0  0  0  0  0  0  0  0  0  0  0  0
    8.9280   -1.3530    0.0000 H   0  0  0  0  0  0  0  0  0  0  0  0
    4.7160   -1.9110    0.0000 H   0  0  0  0  0  0  0  0  0  0  0  0
    6.3790   -2.5570    0.0000 H   0  0  0  0  0  0  0  0  0  0  0  0
  1  2  1  0  0  0  0
  1 28  1  0  0  0  0
  1 29  1  0  0  0  0
  1 30  1  0  0  0  0
  2  3  1  0  0  0  0
  3  4  2  0  0  0  0
  3  9  1  0  0  0  0
  4  5  1  0  0  0  0
  4 31  1  0  0  0  0
  5  6  2  0  0  0  0
  5 32  1  0  0  0  0
  6  7  1  0  0  0  0
  6  8  1  0  0  0  0
  7 33  1  0  0  0  0
  7 34  1  0  0  0  0
  7 35  1  0  0  0  0
  8  9  2  0  0  0  0
  8 36  1  0  0  0  0
  9 10  1  0  0  0  0
 10 11  1  0  0  0  0
 10 37  1  0  0  0  0
 11 12  2  0  0  0  0
 11 13  1  0  0  0  0
 13 14  2  0  0  0  0
 13 18  1  0  0  0  0
 14 15  1  0  0  0  0
 14 38  1  0  0  0  0
 15 16  2  0  0  0  0
 15 39  1  0  0  0  0
 16 17  1  0  0  0  0
 16 19  1  0  0  0  0
 17 18  2  0  0  0  0
 17 40  1  0  0  0  0
 18 41  1  0  0  0  0
 19 20  2  0  0  0  0
 19 21  2  0  0  0  0
 19 22  1  0  0  0  0
 22 23  1  0  0  0  0
 22 27  1  0  0  0  0
 23 24  1  0  0  0  0
 23 42  1  0  0  0  0
 23 43  1  0  0  0  0
 24 25  1  0  0  0  0
 24 44  1  0  0  0  0
 24 45  1  0  0  0  0
 25 26  1  0  0  0  0
 25 46  1  0  0  0  0
 25 47  1  0  0  0  0
 26 27  1  0  0  0  0
 26 48  1  0  0  0  0
 26 49  1  0  0  0  0
 27 50  1  0  0  0  0
 27 51  1  0  0  0  0
M  END
$$$$
