2D_structures\o77_MMV1578574_2D.pdb
 OpenBabel02272408253D

 71 75  0  0  1  0  0  0  0  0999 V2000
    7.0250   -2.7540    0.0000 C   0  0  0  0  0  0  0  0  0  0  0  0
    7.0110   -1.2540    0.0000 N   0  0  0  0  0  0  0  0  0  0  0  0
    8.3040   -0.4920    0.0000 C   0  0  0  0  0  0  0  0  0  0  0  0
    5.7060   -0.5160    0.0000 C   0  0  1  0  0  0  0  0  0  0  0  0
    4.2260   -0.2690    0.0000 C   0  0  1  0  0  0  0  0  0  0  0  0
    3.2720   -1.4260    0.0000 C   0  0  0  0  0  0  0  0  0  0  0  0
    1.7930   -1.1790    0.0000 C   0  0  1  0  0  0  0  0  0  0  0  0
    0.8390   -2.3370    0.0000 C   0  0  0  0  0  0  0  0  0  0  0  0
   -0.6400   -2.0900    0.0000 C   0  0  0  0  0  0  0  0  0  0  0  0
   -1.5940   -3.2470    0.0000 C   0  0  0  0  0  0  0  0  0  0  0  0
   -1.0680   -4.6520    0.0000 F   0  0  0  0  0  0  0  0  0  0  0  0
   -3.0740   -3.0000    0.0000 C   0  0  0  0  0  0  0  0  0  0  0  0
   -3.5990   -1.5950    0.0000 C   0  0  0  0  0  0  0  0  0  0  0  0
   -5.0790   -1.3480    0.0000 N   0  0  0  0  0  0  0  0  0  0  0  0
   -5.6050    0.0570    0.0000 C   0  0  0  0  0  0  0  0  0  0  0  0
   -4.6510    1.2140    0.0000 O   0  0  0  0  0  0  0  0  0  0  0  0
   -7.0840    0.3040    0.0000 C   0  0  0  0  0  0  0  0  0  0  0  0
   -8.5630    0.5510    0.0000 N   0  0  0  0  0  0  0  0  0  0  0  0
   -9.6330   -0.5000    0.0000 C   0  0  0  0  0  0  0  0  0  0  0  0
  -10.9640    0.1920    0.0000 C   0  0  0  0  0  0  0  0  0  0  0  0
  -10.7170    1.6710    0.0000 C   0  0  0  0  0  0  0  0  0  0  0  0
   -9.2330    1.8930    0.0000 C   0  0  0  0  0  0  0  0  0  0  0  0
   -2.6460   -0.4380    0.0000 C   0  0  0  0  0  0  0  0  0  0  0  0
   -3.1710    0.9670    0.0000 O   0  0  0  0  0  0  0  0  0  0  0  0
   -1.1660   -0.6850    0.0000 C   0  0  0  0  0  0  0  0  0  0  0  0
   -0.2120    0.4730    0.0000 C   0  0  0  0  0  0  0  0  0  0  0  0
    1.2670    0.2260    0.0000 C   0  0  0  0  0  0  0  0  0  0  0  0
    2.2210    1.3830    0.0000 C   0  0  0  0  0  0  0  0  0  0  0  0
    1.6950    2.7880    0.0000 O   0  0  0  0  0  0  0  0  0  0  0  0
    3.7010    1.1360    0.0000 C   0  0  1  0  0  0  0  0  0  0  0  0
    3.1750    2.5410    0.0000 O   0  0  0  0  0  0  0  0  0  0  0  0
    4.6540    2.2940    0.0000 C   0  0  0  0  0  0  0  0  0  0  0  0
    6.1340    2.0470    0.0000 C   0  0  0  0  0  0  0  0  0  0  0  0
    7.0880    3.2040    0.0000 C   0  0  0  0  0  0  0  0  0  0  0  0
    6.5620    4.6090    0.0000 O   0  0  0  0  0  0  0  0  0  0  0  0
    8.5670    2.9570    0.0000 N   0  0  0  0  0  0  0  0  0  0  0  0
    6.6600    0.6420    0.0000 C   0  0  0  0  0  0  0  0  0  0  0  0
    7.4560    0.6070    0.0000 O   0  0  0  0  0  0  0  0  0  0  0  0
    4.1290    3.6990    0.0000 O   0  0  0  0  0  0  0  0  0  0  0  0
   -0.7380    1.8780    0.0000 O   0  0  0  0  0  0  0  0  0  0  0  0
    7.0380   -4.2540    0.0000 H   0  0  0  0  0  0  0  0  0  0  0  0
    8.5250   -2.7410    0.0000 H   0  0  0  0  0  0  0  0  0  0  0  0
    5.5380   -2.9500    0.0000 H   0  0  0  0  0  0  0  0  0  0  0  0
    9.5960    0.2690    0.0000 H   0  0  0  0  0  0  0  0  0  0  0  0
    9.0650   -1.7850    0.0000 H   0  0  0  0  0  0  0  0  0  0  0  0
    7.9860    0.2390    0.0000 H   0  0  0  0  0  0  0  0  0  0  0  0
    5.3820   -1.9800    0.0000 H   0  0  0  0  0  0  0  0  0  0  0  0
    4.7520   -1.6730    0.0000 H   0  0  0  0  0  0  0  0  0  0  0  0
    3.1290   -2.9190    0.0000 H   0  0  0  0  0  0  0  0  0  0  0  0
    4.3610   -2.4590    0.0000 H   0  0  0  0  0  0  0  0  0  0  0  0
    2.3190   -2.5840    0.0000 H   0  0  0  0  0  0  0  0  0  0  0  0
    0.3390   -3.7510    0.0000 H   0  0  0  0  0  0  0  0  0  0  0  0
    1.9270   -3.3690    0.0000 H   0  0  0  0  0  0  0  0  0  0  0  0
   -4.0270   -4.1580    0.0000 H   0  0  0  0  0  0  0  0  0  0  0  0
   -6.0330   -2.5060    0.0000 H   0  0  0  0  0  0  0  0  0  0  0  0
   -6.8370    1.7830    0.0000 H   0  0  0  0  0  0  0  0  0  0  0  0
   -7.3310   -1.1760    0.0000 H   0  0  0  0  0  0  0  0  0  0  0  0
   -8.4750   -1.4540    0.0000 H   0  0  0  0  0  0  0  0  0  0  0  0
  -10.4610   -1.7520    0.0000 H   0  0  0  0  0  0  0  0  0  0  0  0
  -11.5130   -1.2040    0.0000 H   0  0  0  0  0  0  0  0  0  0  0  0
  -12.4090    0.5920    0.0000 H   0  0  0  0  0  0  0  0  0  0  0  0
  -12.2140    1.7620    0.0000 H   0  0  0  0  0  0  0  0  0  0  0  0
  -10.7820    3.1700    0.0000 H   0  0  0  0  0  0  0  0  0  0  0  0
   -9.6090    3.3460    0.0000 H   0  0  0  0  0  0  0  0  0  0  0  0
   -7.8280    2.4190    0.0000 H   0  0  0  0  0  0  0  0  0  0  0  0
   -2.2170    2.1250    0.0000 H   0  0  0  0  0  0  0  0  0  0  0  0
    3.8200    3.8950    0.0000 H   0  0  0  0  0  0  0  0  0  0  0  0
    9.5210    4.1150    0.0000 H   0  0  0  0  0  0  0  0  0  0  0  0
    9.0930    1.5520    0.0000 H   0  0  0  0  0  0  0  0  0  0  0  0
    5.0830    4.8570    0.0000 H   0  0  0  0  0  0  0  0  0  0  0  0
    0.2160    3.0360    0.0000 H   0  0  0  0  0  0  0  0  0  0  0  0
  1  2  1  0  0  0  0
  1 41  1  0  0  0  0
  1 42  1  0  0  0  0
  1 43  1  0  0  0  0
  2  3  1  0  0  0  0
  2  4  1  0  0  0  0
  3 44  1  0  0  0  0
  3 45  1  0  0  0  0
  3 46  1  0  0  0  0
  4  5  1  0  0  0  0
  4 37  1  0  0  0  0
  4 47  1  6  0  0  0
  5  6  1  0  0  0  0
  5 30  1  0  0  0  0
  5 48  1  6  0  0  0
  6  7  1  0  0  0  0
  6 49  1  0  0  0  0
  6 50  1  0  0  0  0
  7  8  1  0  0  0  0
  7 27  1  0  0  0  0
  7 51  1  6  0  0  0
  8  9  1  0  0  0  0
  8 52  1  0  0  0  0
  8 53  1  0  0  0  0
  9 10  2  0  0  0  0
  9 25  1  0  0  0  0
 10 11  1  0  0  0  0
 10 12  1  0  0  0  0
 12 13  2  0  0  0  0
 12 54  1  0  0  0  0
 13 14  1  0  0  0  0
 13 23  1  0  0  0  0
 14 15  1  0  0  0  0
 14 55  1  0  0  0  0
 15 16  2  0  0  0  0
 15 17  1  0  0  0  0
 17 18  1  0  0  0  0
 17 56  1  0  0  0  0
 17 57  1  0  0  0  0
 18 19  1  0  0  0  0
 18 22  1  0  0  0  0
 19 20  2  0  0  0  0
 19 58  1  0  0  0  0
 19 59  1  0  0  0  0
 20 21  1  0  0  0  0
 20 60  1  0  0  0  0
 20 61  1  0  0  0  0
 21 22  2  0  0  0  0
 21 62  1  0  0  0  0
 21 63  1  0  0  0  0
 22 64  1  0  0  0  0
 22 65  1  0  0  0  0
 23 24  1  0  0  0  0
 23 25  2  0  0  0  0
 24 66  1  0  0  0  0
 25 26  1  0  0  0  0
 26 27  2  0  0  0  0
 26 40  1  0  0  0  0
 27 28  1  0  0  0  0
 28 29  2  0  0  0  0
 28 30  1  0  0  0  0
 30 31  1  1  0  0  0
 30 32  1  0  0  0  0
 31 67  1  0  0  0  0
 32 33  2  0  0  0  0
 32 39  1  0  0  0  0
 33 34  1  0  0  0  0
 33 37  1  0  0  0  0
 34 35  2  0  0  0  0
 34 36  1  0  0  0  0
 36 68  1  0  0  0  0
 36 69  1  0  0  0  0
 37 38  2  0  0  0  0
 39 70  1  0  0  0  0
 40 71  1  0  0  0  0
M  END
$$$$
