2D_structures\o78_MMV1578569_2D.pdb
 OpenBabel02272408253D

 23 24  0  0  0  0  0  0  0  0999 V2000
   -2.2960   -2.5700    0.0000 O   0  0  0  0  0  0  0  0  0  0  0  0
   -2.1950   -1.0730    0.0000 C   0  0  0  0  0  0  0  0  0  0  0  0
   -3.4410   -0.2380    0.0000 C   0  0  0  0  0  0  0  0  0  0  0  0
   -4.7870   -0.8990    0.0000 Br  0  0  0  0  0  0  0  0  0  0  0  0
   -3.3400    1.2590    0.0000 C   0  0  0  0  0  0  0  0  0  0  0  0
   -1.9930    1.9200    0.0000 C   0  0  0  0  0  0  0  0  0  0  0  0
   -1.8920    3.4160    0.0000 Br  0  0  0  0  0  0  0  0  0  0  0  0
   -0.7480    1.0840    0.0000 C   0  0  0  0  0  0  0  0  0  0  0  0
   -0.8480   -0.4120    0.0000 C   0  0  0  0  0  0  0  0  0  0  0  0
    0.3970   -1.2480    0.0000 C   0  0  0  0  0  0  0  0  0  0  0  0
    1.7440   -0.5870    0.0000 C   0  0  0  0  0  0  0  0  0  0  0  0
    2.0000    0.8910    0.0000 N   0  0  0  0  0  0  0  0  0  0  0  0
    3.4850    1.1030    0.0000 C   0  0  0  0  0  0  0  0  0  0  0  0
    4.1860    2.4300    0.0000 S   0  0  0  0  0  0  0  0  0  0  0  0
    4.1460   -0.2430    0.0000 N   0  0  0  0  0  0  0  0  0  0  0  0
    3.0700   -1.2880    0.0000 C   0  0  0  0  0  0  0  0  0  0  0  0
    3.2820   -2.7730    0.0000 O   0  0  0  0  0  0  0  0  0  0  0  0
   -3.6420   -3.2310    0.0000 H   0  0  0  0  0  0  0  0  0  0  0  0
   -4.5860    2.0950    0.0000 H   0  0  0  0  0  0  0  0  0  0  0  0
    0.2700    1.7490    0.0000 H   0  0  0  0  0  0  0  0  0  0  0  0
    0.2960   -2.7450    0.0000 H   0  0  0  0  0  0  0  0  0  0  0  0
    1.2670    1.8590    0.0000 H   0  0  0  0  0  0  0  0  0  0  0  0
    5.6240   -0.5000    0.0000 H   0  0  0  0  0  0  0  0  0  0  0  0
  1  2  1  0  0  0  0
  1 18  1  0  0  0  0
  2  3  2  0  0  0  0
  2  9  1  0  0  0  0
  3  4  1  0  0  0  0
  3  5  1  0  0  0  0
  5  6  2  0  0  0  0
  5 19  1  0  0  0  0
  6  7  1  0  0  0  0
  6  8  1  0  0  0  0
  8  9  2  0  0  0  0
  8 20  1  0  0  0  0
  9 10  1  0  0  0  0
 10 11  2  0  0  0  0
 10 21  1  0  0  0  0
 11 12  1  0  0  0  0
 11 16  1  0  0  0  0
 12 13  1  0  0  0  0
 12 22  1  0  0  0  0
 13 14  2  0  0  0  0
 13 15  1  0  0  0  0
 15 16  1  0  0  0  0
 15 23  1  0  0  0  0
 16 17  2  0  0  0  0
M  END
$$$$
