2D_structures\o7_MMV1634384_2D.pdb
 OpenBabel02272408253D

 51 53  0  0  0  0  0  0  0  0999 V2000
   -0.0540   -4.6580    0.0000 Cl  0  0  0  0  0  0  0  0  0  0  0  0
    0.9640   -3.5570    0.0000 C   0  0  0  0  0  0  0  0  0  0  0  0
    0.5200   -2.1250    0.0000 C   0  0  0  0  0  0  0  0  0  0  0  0
   -0.9430   -1.7930    0.0000 C   0  0  0  0  0  0  0  0  0  0  0  0
   -1.9610   -2.8940    0.0000 O   0  0  0  0  0  0  0  0  0  0  0  0
   -1.3870   -0.3600    0.0000 N   0  0  0  0  0  0  0  0  0  0  0  0
   -2.8500   -0.0290    0.0000 C   0  0  0  0  0  0  0  0  0  0  0  0
   -3.9780   -1.0170    0.0000 C   0  0  0  0  0  0  0  0  0  0  0  0
   -3.8410   -2.5110    0.0000 C   0  0  0  0  0  0  0  0  0  0  0  0
   -3.7050   -4.0050    0.0000 N   0  0  0  0  0  0  0  0  0  0  0  0
   -5.2670   -0.2500    0.0000 C   0  0  0  0  0  0  0  0  0  0  0  0
   -4.9360    1.2130    0.0000 C   0  0  0  0  0  0  0  0  0  0  0  0
   -3.4420    1.3500    0.0000 S   0  0  0  0  0  0  0  0  0  0  0  0
   -6.0370    2.2310    0.0000 C   0  0  0  0  0  0  0  0  0  0  0  0
   -7.4690    1.7870    0.0000 C   0  0  0  0  0  0  0  0  0  0  0  0
   -7.8010    0.3240    0.0000 C   0  0  0  0  0  0  0  0  0  0  0  0
   -6.7000   -0.6940    0.0000 C   0  0  0  0  0  0  0  0  0  0  0  0
    1.5390   -1.0230    0.0000 C   0  0  0  0  0  0  0  0  0  0  0  0
    3.0010   -1.3550    0.0000 C   0  0  0  0  0  0  0  0  0  0  0  0
    4.0200   -0.2540    0.0000 S   0  0  0  0  0  0  0  0  0  0  0  0
    5.1210   -1.2720    0.0000 O   0  0  0  0  0  0  0  0  0  0  0  0
    2.9190    0.7650    0.0000 O   0  0  0  0  0  0  0  0  0  0  0  0
    5.0390    0.8470    0.0000 N   0  0  0  0  0  0  0  0  0  0  0  0
    4.5940    2.2800    0.0000 C   0  0  0  0  0  0  0  0  0  0  0  0
    4.1500    3.7130    0.0000 C   0  0  0  0  0  0  0  0  0  0  0  0
    6.5020    0.5160    0.0000 C   0  0  0  0  0  0  0  0  0  0  0  0
    7.9640    0.1840    0.0000 C   0  0  0  0  0  0  0  0  0  0  0  0
    3.4460   -2.7880    0.0000 C   0  0  0  0  0  0  0  0  0  0  0  0
    2.4270   -3.8890    0.0000 C   0  0  0  0  0  0  0  0  0  0  0  0
   -0.3690    0.7410    0.0000 H   0  0  0  0  0  0  0  0  0  0  0  0
   -6.7230    3.5650    0.0000 H   0  0  0  0  0  0  0  0  0  0  0  0
   -4.8420    3.1390    0.0000 H   0  0  0  0  0  0  0  0  0  0  0  0
   -8.9680    1.8600    0.0000 H   0  0  0  0  0  0  0  0  0  0  0  0
   -7.6580    3.2750    0.0000 H   0  0  0  0  0  0  0  0  0  0  0  0
   -8.6130   -0.9370    0.0000 H   0  0  0  0  0  0  0  0  0  0  0  0
   -9.1840    0.9050    0.0000 H   0  0  0  0  0  0  0  0  0  0  0  0
   -6.0130   -2.0280    0.0000 H   0  0  0  0  0  0  0  0  0  0  0  0
   -7.8940   -1.6020    0.0000 H   0  0  0  0  0  0  0  0  0  0  0  0
    1.0940    0.4090    0.0000 H   0  0  0  0  0  0  0  0  0  0  0  0
    3.1620    1.8360    0.0000 H   0  0  0  0  0  0  0  0  0  0  0  0
    6.0270    2.7240    0.0000 H   0  0  0  0  0  0  0  0  0  0  0  0
    3.7060    5.1450    0.0000 H   0  0  0  0  0  0  0  0  0  0  0  0
    2.7170    3.2680    0.0000 H   0  0  0  0  0  0  0  0  0  0  0  0
    5.5830    4.1570    0.0000 H   0  0  0  0  0  0  0  0  0  0  0  0
    6.1700   -0.9470    0.0000 H   0  0  0  0  0  0  0  0  0  0  0  0
    6.8330    1.9790    0.0000 H   0  0  0  0  0  0  0  0  0  0  0  0
    9.4270   -0.1470    0.0000 H   0  0  0  0  0  0  0  0  0  0  0  0
    7.6330   -1.2790    0.0000 H   0  0  0  0  0  0  0  0  0  0  0  0
    8.2960    1.6470    0.0000 H   0  0  0  0  0  0  0  0  0  0  0  0
    4.9090   -3.1190    0.0000 H   0  0  0  0  0  0  0  0  0  0  0  0
    2.8720   -5.3220    0.0000 H   0  0  0  0  0  0  0  0  0  0  0  0
  1  2  1  0  0  0  0
  2  3  2  0  0  0  0
  2 29  1  0  0  0  0
  3  4  1  0  0  0  0
  3 18  1  0  0  0  0
  4  5  2  0  0  0  0
  4  6  1  0  0  0  0
  6  7  1  0  0  0  0
  6 30  1  0  0  0  0
  7  8  2  0  0  0  0
  7 13  1  0  0  0  0
  8  9  1  0  0  0  0
  8 11  1  0  0  0  0
  9 10  3  0  0  0  0
 11 12  2  0  0  0  0
 11 17  1  0  0  0  0
 12 13  1  0  0  0  0
 12 14  1  0  0  0  0
 14 15  1  0  0  0  0
 14 31  1  0  0  0  0
 14 32  1  0  0  0  0
 15 16  1  0  0  0  0
 15 33  1  0  0  0  0
 15 34  1  0  0  0  0
 16 17  1  0  0  0  0
 16 35  1  0  0  0  0
 16 36  1  0  0  0  0
 17 37  1  0  0  0  0
 17 38  1  0  0  0  0
 18 19  2  0  0  0  0
 18 39  1  0  0  0  0
 19 20  1  0  0  0  0
 19 28  1  0  0  0  0
 20 21  2  0  0  0  0
 20 22  2  0  0  0  0
 20 23  1  0  0  0  0
 23 24  1  0  0  0  0
 23 26  1  0  0  0  0
 24 25  1  0  0  0  0
 24 40  1  0  0  0  0
 24 41  1  0  0  0  0
 25 42  1  0  0  0  0
 25 43  1  0  0  0  0
 25 44  1  0  0  0  0
 26 27  1  0  0  0  0
 26 45  1  0  0  0  0
 26 46  1  0  0  0  0
 27 47  1  0  0  0  0
 27 48  1  0  0  0  0
 27 49  1  0  0  0  0
 28 29  2  0  0  0  0
 28 50  1  0  0  0  0
 29 51  1  0  0  0  0
M  END
$$$$
