2D_structures\o8_MMV1634383_2D.pdb
 OpenBabel02272408253D

 65 68  0  0  0  0  0  0  0  0999 V2000
    0.0430   -3.2100    0.0000 O   0  0  0  0  0  0  0  0  0  0  0  0
    1.0990   -2.1450    0.0000 C   0  0  0  0  0  0  0  0  0  0  0  0
    0.7050   -0.6980    0.0000 N   0  0  0  0  0  0  0  0  0  0  0  0
    1.7620    0.3670    0.0000 C   0  0  0  0  0  0  0  0  0  0  0  0
    1.3680    1.8140    0.0000 O   0  0  0  0  0  0  0  0  0  0  0  0
    3.2120   -0.0160    0.0000 C   0  0  0  0  0  0  0  0  0  0  0  0
    3.6060   -1.4630    0.0000 C   0  0  0  0  0  0  0  0  0  0  0  0
    2.5500   -2.5280    0.0000 N   0  0  0  0  0  0  0  0  0  0  0  0
    5.0570   -1.8450    0.0000 N   0  0  0  0  0  0  0  0  0  0  0  0
    6.1130   -0.7810    0.0000 C   0  0  0  0  0  0  0  0  0  0  0  0
    7.5640   -1.1630    0.0000 C   0  0  0  0  0  0  0  0  0  0  0  0
    8.6200   -0.0980    0.0000 C   0  0  0  0  0  0  0  0  0  0  0  0
    8.2260    1.3490    0.0000 C   0  0  0  0  0  0  0  0  0  0  0  0
    9.2820    2.4140    0.0000 C   0  0  0  0  0  0  0  0  0  0  0  0
    6.7760    1.7320    0.0000 C   0  0  0  0  0  0  0  0  0  0  0  0
    5.7190    0.6670    0.0000 C   0  0  0  0  0  0  0  0  0  0  0  0
   10.0700   -0.4810    0.0000 C   0  0  0  0  0  0  0  0  0  0  0  0
   11.5210   -0.8630    0.0000 C   0  0  0  0  0  0  0  0  0  0  0  0
   -0.7450   -0.3160    0.0000 C   0  0  0  0  0  0  0  0  0  0  0  0
   -2.1950    0.0670    0.0000 C   0  0  0  0  0  0  0  0  0  0  0  0
   -3.6460    0.4490    0.0000 N   0  0  0  0  0  0  0  0  0  0  0  0
   -4.0400    1.8970    0.0000 C   0  0  0  0  0  0  0  0  0  0  0  0
   -5.4900    2.2790    0.0000 C   0  0  0  0  0  0  0  0  0  0  0  0
   -6.5470    1.2140    0.0000 N   0  0  0  0  0  0  0  0  0  0  0  0
   -7.9970    1.5970    0.0000 C   0  0  0  0  0  0  0  0  0  0  0  0
   -8.3910    3.0440    0.0000 O   0  0  0  0  0  0  0  0  0  0  0  0
   -9.0540    0.5320    0.0000 C   0  0  0  0  0  0  0  0  0  0  0  0
  -10.5040    0.9140    0.0000 C   0  0  0  0  0  0  0  0  0  0  0  0
  -11.5600   -0.1510    0.0000 C   0  0  0  0  0  0  0  0  0  0  0  0
  -11.1660   -1.5980    0.0000 C   0  0  0  0  0  0  0  0  0  0  0  0
   -9.7160   -1.9800    0.0000 C   0  0  0  0  0  0  0  0  0  0  0  0
   -8.6600   -0.9150    0.0000 C   0  0  0  0  0  0  0  0  0  0  0  0
   -6.1530   -0.2330    0.0000 C   0  0  0  0  0  0  0  0  0  0  0  0
   -4.7020   -0.6160    0.0000 C   0  0  0  0  0  0  0  0  0  0  0  0
    3.8150    0.7620    0.0000 H   0  0  0  0  0  0  0  0  0  0  0  0
    2.9440   -3.9750    0.0000 H   0  0  0  0  0  0  0  0  0  0  0  0
    5.4510   -3.2930    0.0000 H   0  0  0  0  0  0  0  0  0  0  0  0
    7.9580   -2.6100    0.0000 H   0  0  0  0  0  0  0  0  0  0  0  0
   10.3390    3.4790    0.0000 H   0  0  0  0  0  0  0  0  0  0  0  0
    8.2180    3.4700    0.0000 H   0  0  0  0  0  0  0  0  0  0  0  0
   10.2430    1.6700    0.0000 H   0  0  0  0  0  0  0  0  0  0  0  0
    6.3820    3.1790    0.0000 H   0  0  0  0  0  0  0  0  0  0  0  0
    4.8050    1.0320    0.0000 H   0  0  0  0  0  0  0  0  0  0  0  0
   10.5210    0.6480    0.0000 H   0  0  0  0  0  0  0  0  0  0  0  0
    9.6880   -1.9310    0.0000 H   0  0  0  0  0  0  0  0  0  0  0  0
   12.9710   -1.2460    0.0000 H   0  0  0  0  0  0  0  0  0  0  0  0
   11.1380   -2.3140    0.0000 H   0  0  0  0  0  0  0  0  0  0  0  0
   11.9030    0.5870    0.0000 H   0  0  0  0  0  0  0  0  0  0  0  0
   -1.1270   -1.7660    0.0000 H   0  0  0  0  0  0  0  0  0  0  0  0
   -0.3630    1.1350    0.0000 H   0  0  0  0  0  0  0  0  0  0  0  0
   -2.3980   -1.4190    0.0000 H   0  0  0  0  0  0  0  0  0  0  0  0
   -1.6390    1.4600    0.0000 H   0  0  0  0  0  0  0  0  0  0  0  0
   -3.9150    3.3910    0.0000 H   0  0  0  0  0  0  0  0  0  0  0  0
   -2.5740    2.2140    0.0000 H   0  0  0  0  0  0  0  0  0  0  0  0
   -6.7220    3.1350    0.0000 H   0  0  0  0  0  0  0  0  0  0  0  0
   -4.8620    3.6410    0.0000 H   0  0  0  0  0  0  0  0  0  0  0  0
  -10.8980    2.3620    0.0000 H   0  0  0  0  0  0  0  0  0  0  0  0
  -13.0110    0.2320    0.0000 H   0  0  0  0  0  0  0  0  0  0  0  0
  -12.2230   -2.6630    0.0000 H   0  0  0  0  0  0  0  0  0  0  0  0
   -9.3220   -3.4280    0.0000 H   0  0  0  0  0  0  0  0  0  0  0  0
   -7.2090   -1.2980    0.0000 H   0  0  0  0  0  0  0  0  0  0  0  0
   -6.2780   -1.7280    0.0000 H   0  0  0  0  0  0  0  0  0  0  0  0
   -7.6460   -0.3700    0.0000 H   0  0  0  0  0  0  0  0  0  0  0  0
   -3.5840   -1.6150    0.0000 H   0  0  0  0  0  0  0  0  0  0  0  0
   -5.3310   -1.9780    0.0000 H   0  0  0  0  0  0  0  0  0  0  0  0
  1  2  2  0  0  0  0
  2  3  1  0  0  0  0
  2  8  1  0  0  0  0
  3  4  1  0  0  0  0
  3 19  1  0  0  0  0
  4  5  2  0  0  0  0
  4  6  1  0  0  0  0
  6  7  2  0  0  0  0
  6 35  1  0  0  0  0
  7  8  1  0  0  0  0
  7  9  1  0  0  0  0
  8 36  1  0  0  0  0
  9 10  1  0  0  0  0
  9 37  1  0  0  0  0
 10 11  2  0  0  0  0
 10 16  1  0  0  0  0
 11 12  1  0  0  0  0
 11 38  1  0  0  0  0
 12 13  2  0  0  0  0
 12 17  1  0  0  0  0
 13 14  1  0  0  0  0
 13 15  1  0  0  0  0
 14 39  1  0  0  0  0
 14 40  1  0  0  0  0
 14 41  1  0  0  0  0
 15 16  2  0  0  0  0
 15 42  1  0  0  0  0
 16 43  1  0  0  0  0
 17 18  1  0  0  0  0
 17 44  1  0  0  0  0
 17 45  1  0  0  0  0
 18 46  1  0  0  0  0
 18 47  1  0  0  0  0
 18 48  1  0  0  0  0
 19 20  1  0  0  0  0
 19 49  1  0  0  0  0
 19 50  1  0  0  0  0
 20 21  1  0  0  0  0
 20 51  1  0  0  0  0
 20 52  1  0  0  0  0
 21 22  1  0  0  0  0
 21 34  1  0  0  0  0
 22 23  1  0  0  0  0
 22 53  1  0  0  0  0
 22 54  1  0  0  0  0
 23 24  1  0  0  0  0
 23 55  1  0  0  0  0
 23 56  1  0  0  0  0
 24 25  1  0  0  0  0
 24 33  1  0  0  0  0
 25 26  2  0  0  0  0
 25 27  1  0  0  0  0
 27 28  2  0  0  0  0
 27 32  1  0  0  0  0
 28 29  1  0  0  0  0
 28 57  1  0  0  0  0
 29 30  2  0  0  0  0
 29 58  1  0  0  0  0
 30 31  1  0  0  0  0
 30 59  1  0  0  0  0
 31 32  2  0  0  0  0
 31 60  1  0  0  0  0
 32 61  1  0  0  0  0
 33 34  1  0  0  0  0
 33 62  1  0  0  0  0
 33 63  1  0  0  0  0
 34 64  1  0  0  0  0
 34 65  1  0  0  0  0
M  END
$$$$
