2D_structures\o11_MMV1633677_2D.pdb
 OpenBabel02282409193D

 32 34  0  0  1  0  0  0  0  0999 V2000
   -0.1100    2.1680    0.0000 F   0  0  0  0  0  0  0  0  0  0  0  0
   -1.4100    1.4190    0.0000 C   0  0  1  0  0  0  0  0  0  0  0  0
   -0.5290    0.2050    0.0000 C   0  0  1  0  0  0  0  0  0  0  0  0
   -1.4120   -1.0080    0.0000 O   0  0  0  0  0  0  0  0  0  0  0  0
   -2.8380   -0.5430    0.0000 C   0  0  1  0  0  0  0  0  0  0  0  0
   -2.8370    0.9570    0.0000 C   0  0  1  0  0  0  0  0  0  0  0  0
   -3.1470    2.4240    0.0000 O   0  0  0  0  0  0  0  0  0  0  0  0
   -4.3300   -0.3850    0.0000 C   0  0  0  0  0  0  0  0  0  0  0  0
   -5.8220   -0.2270    0.0000 O   0  0  0  0  0  0  0  0  0  0  0  0
    0.5840   -0.8000    0.0000 N   0  0  0  0  0  0  0  0  0  0  0  0
    2.0520   -0.4900    0.0000 C   0  0  0  0  0  0  0  0  0  0  0  0
    2.8010   -1.7890    0.0000 C   0  0  0  0  0  0  0  0  0  0  0  0
    4.3010   -1.7910    0.0000 C   0  0  0  0  0  0  0  0  0  0  0  0
    5.0500   -3.0910    0.0000 O   0  0  0  0  0  0  0  0  0  0  0  0
    5.0520   -0.4930    0.0000 N   0  0  0  0  0  0  0  0  0  0  0  0
    4.3030    0.8070    0.0000 C   0  0  0  0  0  0  0  0  0  0  0  0
    2.8030    0.8090    0.0000 N   0  0  0  0  0  0  0  0  0  0  0  0
    5.0540    2.1060    0.0000 N   0  0  0  0  0  0  0  0  0  0  0  0
    1.7960   -2.9030    0.0000 N   0  0  0  0  0  0  0  0  0  0  0  0
    0.4260   -2.2920    0.0000 C   0  0  0  0  0  0  0  0  0  0  0  0
   -2.0190    2.7900    0.0000 H   0  0  0  0  0  0  0  0  0  0  0  0
    0.5860    1.2070    0.0000 H   0  0  0  0  0  0  0  0  0  0  0  0
   -3.1510   -2.0100    0.0000 H   0  0  0  0  0  0  0  0  0  0  0  0
   -3.6340    0.9710    0.0000 H   0  0  0  0  0  0  0  0  0  0  0  0
   -4.5730    2.8890    0.0000 H   0  0  0  0  0  0  0  0  0  0  0  0
   -4.3430    0.4120    0.0000 H   0  0  0  0  0  0  0  0  0  0  0  0
   -4.4880   -1.8770    0.0000 H   0  0  0  0  0  0  0  0  0  0  0  0
   -6.7040   -1.4400    0.0000 H   0  0  0  0  0  0  0  0  0  0  0  0
    6.5520   -0.4940    0.0000 H   0  0  0  0  0  0  0  0  0  0  0  0
    6.5540    2.1040    0.0000 H   0  0  0  0  0  0  0  0  0  0  0  0
    4.3060    3.4050    0.0000 H   0  0  0  0  0  0  0  0  0  0  0  0
   -0.8730   -3.0410    0.0000 H   0  0  0  0  0  0  0  0  0  0  0  0
  1  2  1  0  0  0  0
  2  3  1  0  0  0  0
  2  6  1  0  0  0  0
  2 21  1  6  0  0  0
  3  4  1  0  0  0  0
  3 10  1  0  0  0  0
  3 22  1  1  0  0  0
  4  5  1  0  0  0  0
  5  6  1  0  0  0  0
  5  8  1  0  0  0  0
  5 23  1  1  0  0  0
  6  7  1  0  0  0  0
  6 24  1  6  0  0  0
  7 25  1  0  0  0  0
  8  9  1  0  0  0  0
  8 26  1  0  0  0  0
  8 27  1  0  0  0  0
  9 28  1  0  0  0  0
 10 11  1  0  0  0  0
 10 20  1  0  0  0  0
 11 12  2  0  0  0  0
 11 17  1  0  0  0  0
 12 13  1  0  0  0  0
 12 19  1  0  0  0  0
 13 14  2  0  0  0  0
 13 15  1  0  0  0  0
 15 16  1  0  0  0  0
 15 29  1  0  0  0  0
 16 17  2  0  0  0  0
 16 18  1  0  0  0  0
 18 30  1  0  0  0  0
 18 31  1  0  0  0  0
 19 20  2  0  0  0  0
 20 32  1  0  0  0  0
M  END
$$$$
