2D_structures\o14_MMV1580794_2D.pdb
 OpenBabel02282409193D

 67 68  0  0  1  0  0  0  0  0999 V2000
    0.7180    2.9810    0.0000 C   0  0  0  0  0  0  0  0  0  0  0  0
   -0.4780    2.0760    0.0000 C   0  0  1  0  0  0  0  0  0  0  0  0
    0.4270    0.8800    0.0000 N   0  0  0  0  0  0  0  0  0  0  0  0
    1.9160    1.0650    0.0000 C   0  0  0  0  0  0  0  0  0  0  0  0
    2.2600    1.8810    0.0000 O   0  0  0  0  0  0  0  0  0  0  0  0
    2.8210   -0.1310    0.0000 C   0  0  0  0  0  0  0  0  0  0  0  0
    2.2370   -1.5130    0.0000 O   0  0  0  0  0  0  0  0  0  0  0  0
    4.3090    0.0550    0.0000 N   0  0  0  0  0  0  0  0  0  0  0  0
    5.2140   -1.1410    0.0000 C   0  0  0  0  0  0  0  0  0  0  0  0
    4.6310   -2.5230    0.0000 C   0  0  0  0  0  0  0  0  0  0  0  0
    5.5360   -3.7200    0.0000 C   0  0  0  0  0  0  0  0  0  0  0  0
    7.0240   -3.5340    0.0000 C   0  0  0  0  0  0  0  0  0  0  0  0
    7.6080   -2.1520    0.0000 C   0  0  0  0  0  0  0  0  0  0  0  0
    6.7030   -0.9560    0.0000 C   0  0  0  0  0  0  0  0  0  0  0  0
    7.2860    0.4260    0.0000 C   0  0  0  0  0  0  0  0  0  0  0  0
    7.8700    1.8080    0.0000 C   0  0  0  0  0  0  0  0  0  0  0  0
    8.6680   -0.1570    0.0000 C   0  0  0  0  0  0  0  0  0  0  0  0
    5.9040    1.0100    0.0000 C   0  0  0  0  0  0  0  0  0  0  0  0
   -1.6740    1.1710    0.0000 C   0  0  0  0  0  0  0  0  0  0  0  0
   -1.4880   -0.3180    0.0000 O   0  0  0  0  0  0  0  0  0  0  0  0
   -3.0560    1.7540    0.0000 N   0  0  0  0  0  0  0  0  0  0  0  0
   -4.2520    0.8490    0.0000 C   0  0  1  0  0  0  0  0  0  0  0  0
   -3.3470   -0.3470    0.0000 C   0  0  0  0  0  0  0  0  0  0  0  0
   -2.4420   -1.5430    0.0000 C   0  0  0  0  0  0  0  0  0  0  0  0
   -0.9540   -1.3580    0.0000 O   0  0  0  0  0  0  0  0  0  0  0  0
   -3.0250   -2.9250    0.0000 O   0  0  0  0  0  0  0  0  0  0  0  0
   -5.1570    2.0450    0.0000 C   0  0  0  0  0  0  0  0  0  0  0  0
   -4.5740    3.4270    0.0000 O   0  0  0  0  0  0  0  0  0  0  0  0
   -6.6460    1.8590    0.0000 C   0  0  0  0  0  0  0  0  0  0  0  0
   -8.1340    1.6740    0.0000 O   0  0  0  0  0  0  0  0  0  0  0  0
   -8.7170    0.2920    0.0000 C   0  0  0  0  0  0  0  0  0  0  0  0
   -7.8120   -0.9040    0.0000 C   0  0  0  0  0  0  0  0  0  0  0  0
   -6.3240   -0.7190    0.0000 F   0  0  0  0  0  0  0  0  0  0  0  0
   -8.3960   -2.2860    0.0000 C   0  0  0  0  0  0  0  0  0  0  0  0
   -7.4910   -3.4820    0.0000 F   0  0  0  0  0  0  0  0  0  0  0  0
   -9.8840   -2.4720    0.0000 C   0  0  0  0  0  0  0  0  0  0  0  0
  -10.7890   -1.2760    0.0000 C   0  0  0  0  0  0  0  0  0  0  0  0
  -12.2780   -1.4610    0.0000 F   0  0  0  0  0  0  0  0  0  0  0  0
  -10.2060    0.1060    0.0000 C   0  0  0  0  0  0  0  0  0  0  0  0
  -11.1110    1.3020    0.0000 F   0  0  0  0  0  0  0  0  0  0  0  0
    1.9150    3.8860    0.0000 H   0  0  0  0  0  0  0  0  0  0  0  0
   -0.1870    4.1770    0.0000 H   0  0  0  0  0  0  0  0  0  0  0  0
    1.4080    2.4250    0.0000 H   0  0  0  0  0  0  0  0  0  0  0  0
   -1.3830    3.2720    0.0000 H   0  0  0  0  0  0  0  0  0  0  0  0
   -0.1560   -0.5020    0.0000 H   0  0  0  0  0  0  0  0  0  0  0  0
    4.7200    1.4970    0.0000 H   0  0  0  0  0  0  0  0  0  0  0  0
    3.1420   -2.7090    0.0000 H   0  0  0  0  0  0  0  0  0  0  0  0
    4.9530   -5.1010    0.0000 H   0  0  0  0  0  0  0  0  0  0  0  0
    7.9290   -4.7300    0.0000 H   0  0  0  0  0  0  0  0  0  0  0  0
    8.4870   -2.0420    0.0000 H   0  0  0  0  0  0  0  0  0  0  0  0
    8.4530    3.1900    0.0000 H   0  0  0  0  0  0  0  0  0  0  0  0
    8.7210    1.5660    0.0000 H   0  0  0  0  0  0  0  0  0  0  0  0
    6.5690    2.5560    0.0000 H   0  0  0  0  0  0  0  0  0  0  0  0
   10.0500   -0.7410    0.0000 H   0  0  0  0  0  0  0  0  0  0  0  0
    9.1090    0.6110    0.0000 H   0  0  0  0  0  0  0  0  0  0  0  0
    8.5310   -1.0320    0.0000 H   0  0  0  0  0  0  0  0  0  0  0  0
    4.6040    1.7570    0.0000 H   0  0  0  0  0  0  0  0  0  0  0  0
    6.3150    2.4520    0.0000 H   0  0  0  0  0  0  0  0  0  0  0  0
    5.0040   -0.1900    0.0000 H   0  0  0  0  0  0  0  0  0  0  0  0
   -3.2420    3.2430    0.0000 H   0  0  0  0  0  0  0  0  0  0  0  0
   -5.4480   -0.0560    0.0000 H   0  0  0  0  0  0  0  0  0  0  0  0
   -1.9670    0.2420    0.0000 H   0  0  0  0  0  0  0  0  0  0  0  0
   -4.5430   -1.2520    0.0000 H   0  0  0  0  0  0  0  0  0  0  0  0
   -2.1200   -4.1210    0.0000 H   0  0  0  0  0  0  0  0  0  0  0  0
   -6.8310    3.3480    0.0000 H   0  0  0  0  0  0  0  0  0  0  0  0
   -6.4600    0.3710    0.0000 H   0  0  0  0  0  0  0  0  0  0  0  0
  -10.4680   -3.8540    0.0000 H   0  0  0  0  0  0  0  0  0  0  0  0
  1  2  1  0  0  0  0
  1 41  1  0  0  0  0
  1 42  1  0  0  0  0
  1 43  1  0  0  0  0
  2  3  1  0  0  0  0
  2 19  1  0  0  0  0
  2 44  1  6  0  0  0
  3  4  1  0  0  0  0
  3 45  1  0  0  0  0
  4  5  2  0  0  0  0
  4  6  1  0  0  0  0
  6  7  2  0  0  0  0
  6  8  1  0  0  0  0
  8  9  1  0  0  0  0
  8 46  1  0  0  0  0
  9 10  2  0  0  0  0
  9 14  1  0  0  0  0
 10 11  1  0  0  0  0
 10 47  1  0  0  0  0
 11 12  2  0  0  0  0
 11 48  1  0  0  0  0
 12 13  1  0  0  0  0
 12 49  1  0  0  0  0
 13 14  2  0  0  0  0
 13 50  1  0  0  0  0
 14 15  1  0  0  0  0
 15 16  1  0  0  0  0
 15 17  1  0  0  0  0
 15 18  1  0  0  0  0
 16 51  1  0  0  0  0
 16 52  1  0  0  0  0
 16 53  1  0  0  0  0
 17 54  1  0  0  0  0
 17 55  1  0  0  0  0
 17 56  1  0  0  0  0
 18 57  1  0  0  0  0
 18 58  1  0  0  0  0
 18 59  1  0  0  0  0
 19 20  2  0  0  0  0
 19 21  1  0  0  0  0
 21 22  1  0  0  0  0
 21 60  1  0  0  0  0
 22 23  1  0  0  0  0
 22 27  1  0  0  0  0
 22 61  1  6  0  0  0
 23 24  1  0  0  0  0
 23 62  1  0  0  0  0
 23 63  1  0  0  0  0
 24 25  2  0  0  0  0
 24 26  1  0  0  0  0
 26 64  1  0  0  0  0
 27 28  2  0  0  0  0
 27 29  1  0  0  0  0
 29 30  1  0  0  0  0
 29 65  1  0  0  0  0
 29 66  1  0  0  0  0
 30 31  1  0  0  0  0
 31 32  2  0  0  0  0
 31 39  1  0  0  0  0
 32 33  1  0  0  0  0
 32 34  1  0  0  0  0
 34 35  1  0  0  0  0
 34 36  2  0  0  0  0
 36 37  1  0  0  0  0
 36 67  1  0  0  0  0
 37 38  1  0  0  0  0
 37 39  2  0  0  0  0
 39 40  1  0  0  0  0
M  END
$$$$
