2D_structures\o15_MMV001793_2D.pdb
 OpenBabel02282409193D

 62 63  0  0  0  0  0  0  0  0999 V2000
    6.2530   -0.9770    0.0000 O   0  0  0  0  0  0  0  0  0  0  0  0
    6.0980    0.5150    0.0000 C   0  0  0  0  0  0  0  0  0  0  0  0
    7.3140    1.3950    0.0000 N   0  0  0  0  0  0  0  0  0  0  0  0
    8.6830    0.7820    0.0000 C   0  0  0  0  0  0  0  0  0  0  0  0
    8.8370   -0.7100    0.0000 C   0  0  0  0  0  0  0  0  0  0  0  0
   10.2060   -1.3230    0.0000 C   0  0  0  0  0  0  0  0  0  0  0  0
   11.4210   -0.4430    0.0000 C   0  0  0  0  0  0  0  0  0  0  0  0
   12.7900   -1.0560    0.0000 O   0  0  0  0  0  0  0  0  0  0  0  0
   11.2670    1.0490    0.0000 C   0  0  0  0  0  0  0  0  0  0  0  0
    9.8980    1.6620    0.0000 C   0  0  0  0  0  0  0  0  0  0  0  0
    4.7290    1.1280    0.0000 C   0  0  0  0  0  0  0  0  0  0  0  0
    3.5140    0.2480    0.0000 C   0  0  0  0  0  0  0  0  0  0  0  0
    2.1450    0.8610    0.0000 C   0  0  0  0  0  0  0  0  0  0  0  0
    0.9300   -0.0190    0.0000 C   0  0  0  0  0  0  0  0  0  0  0  0
   -0.4390    0.5940    0.0000 C   0  0  0  0  0  0  0  0  0  0  0  0
   -1.6540   -0.2860    0.0000 C   0  0  0  0  0  0  0  0  0  0  0  0
   -3.0240    0.3270    0.0000 C   0  0  0  0  0  0  0  0  0  0  0  0
   -4.2390   -0.5530    0.0000 C   0  0  0  0  0  0  0  0  0  0  0  0
   -5.6080    0.0600    0.0000 C   0  0  0  0  0  0  0  0  0  0  0  0
   -5.7620    1.5520    0.0000 C   0  0  0  0  0  0  0  0  0  0  0  0
   -7.1310    2.1640    0.0000 C   0  0  0  0  0  0  0  0  0  0  0  0
   -8.3470    1.2850    0.0000 C   0  0  0  0  0  0  0  0  0  0  0  0
   -8.1920   -0.2070    0.0000 C   0  0  0  0  0  0  0  0  0  0  0  0
   -6.8230   -0.8200    0.0000 C   0  0  0  0  0  0  0  0  0  0  0  0
   -5.7460   -1.8640    0.0000 C   0  0  0  0  0  0  0  0  0  0  0  0
   -7.6640   -2.0620    0.0000 C   0  0  0  0  0  0  0  0  0  0  0  0
   -4.5470    2.4310    0.0000 C   0  0  0  0  0  0  0  0  0  0  0  0
   -1.5000   -1.7780    0.0000 C   0  0  0  0  0  0  0  0  0  0  0  0
    3.6680   -1.2440    0.0000 C   0  0  0  0  0  0  0  0  0  0  0  0
    7.1590    2.8870    0.0000 H   0  0  0  0  0  0  0  0  0  0  0  0
    7.6220   -1.5900    0.0000 H   0  0  0  0  0  0  0  0  0  0  0  0
   10.3600   -2.8150    0.0000 H   0  0  0  0  0  0  0  0  0  0  0  0
   12.9450   -2.5480    0.0000 H   0  0  0  0  0  0  0  0  0  0  0  0
   12.4820    1.9290    0.0000 H   0  0  0  0  0  0  0  0  0  0  0  0
    9.7440    3.1540    0.0000 H   0  0  0  0  0  0  0  0  0  0  0  0
    4.5750    2.6200    0.0000 H   0  0  0  0  0  0  0  0  0  0  0  0
    1.9910    2.3530    0.0000 H   0  0  0  0  0  0  0  0  0  0  0  0
    1.0840   -1.5110    0.0000 H   0  0  0  0  0  0  0  0  0  0  0  0
   -0.5940    2.0860    0.0000 H   0  0  0  0  0  0  0  0  0  0  0  0
   -2.9950    1.8260    0.0000 H   0  0  0  0  0  0  0  0  0  0  0  0
   -4.0850   -2.0450    0.0000 H   0  0  0  0  0  0  0  0  0  0  0  0
   -8.2090    3.2080    0.0000 H   0  0  0  0  0  0  0  0  0  0  0  0
   -6.4480    3.4990    0.0000 H   0  0  0  0  0  0  0  0  0  0  0  0
   -9.7890    0.8740    0.0000 H   0  0  0  0  0  0  0  0  0  0  0  0
   -9.0020    2.6340    0.0000 H   0  0  0  0  0  0  0  0  0  0  0  0
   -8.7320   -1.6070    0.0000 H   0  0  0  0  0  0  0  0  0  0  0  0
   -9.6890   -0.1000    0.0000 H   0  0  0  0  0  0  0  0  0  0  0  0
   -6.2270   -2.5000    0.0000 H   0  0  0  0  0  0  0  0  0  0  0  0
   -4.7140   -1.2220    0.0000 H   0  0  0  0  0  0  0  0  0  0  0  0
   -4.6690   -2.9080    0.0000 H   0  0  0  0  0  0  0  0  0  0  0  0
   -7.0630   -2.5860    0.0000 H   0  0  0  0  0  0  0  0  0  0  0  0
   -8.9990   -1.3790    0.0000 H   0  0  0  0  0  0  0  0  0  0  0  0
   -8.5050   -3.3040    0.0000 H   0  0  0  0  0  0  0  0  0  0  0  0
   -5.2720    3.7440    0.0000 H   0  0  0  0  0  0  0  0  0  0  0  0
   -3.5260    1.3320    0.0000 H   0  0  0  0  0  0  0  0  0  0  0  0
   -3.3320    3.3110    0.0000 H   0  0  0  0  0  0  0  0  0  0  0  0
   -2.9920   -1.9320    0.0000 H   0  0  0  0  0  0  0  0  0  0  0  0
   -0.0080   -1.6240    0.0000 H   0  0  0  0  0  0  0  0  0  0  0  0
   -1.3460   -3.2700    0.0000 H   0  0  0  0  0  0  0  0  0  0  0  0
    2.1760   -1.3980    0.0000 H   0  0  0  0  0  0  0  0  0  0  0  0
    5.1600   -1.0900    0.0000 H   0  0  0  0  0  0  0  0  0  0  0  0
    3.8220   -2.7360    0.0000 H   0  0  0  0  0  0  0  0  0  0  0  0
  1  2  2  0  0  0  0
  2  3  1  0  0  0  0
  2 11  1  0  0  0  0
  3  4  1  0  0  0  0
  3 30  1  0  0  0  0
  4  5  2  0  0  0  0
  4 10  1  0  0  0  0
  5  6  1  0  0  0  0
  5 31  1  0  0  0  0
  6  7  2  0  0  0  0
  6 32  1  0  0  0  0
  7  8  1  0  0  0  0
  7  9  1  0  0  0  0
  8 33  1  0  0  0  0
  9 10  2  0  0  0  0
  9 34  1  0  0  0  0
 10 35  1  0  0  0  0
 11 12  2  0  0  0  0
 11 36  1  0  0  0  0
 12 13  1  0  0  0  0
 12 29  1  0  0  0  0
 13 14  2  0  0  0  0
 13 37  1  0  0  0  0
 14 15  1  0  0  0  0
 14 38  1  0  0  0  0
 15 16  2  0  0  0  0
 15 39  1  0  0  0  0
 16 17  1  0  0  0  0
 16 28  1  0  0  0  0
 17 18  2  0  0  0  0
 17 40  1  0  0  0  0
 18 19  1  0  0  0  0
 18 41  1  0  0  0  0
 19 20  2  0  0  0  0
 19 24  1  0  0  0  0
 20 21  1  0  0  0  0
 20 27  1  0  0  0  0
 21 22  1  0  0  0  0
 21 42  1  0  0  0  0
 21 43  1  0  0  0  0
 22 23  1  0  0  0  0
 22 44  1  0  0  0  0
 22 45  1  0  0  0  0
 23 24  1  0  0  0  0
 23 46  1  0  0  0  0
 23 47  1  0  0  0  0
 24 25  1  0  0  0  0
 24 26  1  0  0  0  0
 25 48  1  0  0  0  0
 25 49  1  0  0  0  0
 25 50  1  0  0  0  0
 26 51  1  0  0  0  0
 26 52  1  0  0  0  0
 26 53  1  0  0  0  0
 27 54  1  0  0  0  0
 27 55  1  0  0  0  0
 27 56  1  0  0  0  0
 28 57  1  0  0  0  0
 28 58  1  0  0  0  0
 28 59  1  0  0  0  0
 29 60  1  0  0  0  0
 29 61  1  0  0  0  0
 29 62  1  0  0  0  0
M  END
$$$$
