2D_structures\o18_MMV009948_2D.pdb
 OpenBabel02282409193D

 68 72  0  0  0  0  0  0  0  0999 V2000
   -0.3030    4.3680    0.0000 O   0  0  0  0  0  0  0  0  0  0  0  0
   -0.3830    2.8700    0.0000 C   0  0  0  0  0  0  0  0  0  0  0  0
    0.8740    2.0520    0.0000 N   0  0  0  0  0  0  0  0  0  0  0  0
    2.2110    2.7320    0.0000 C   0  0  0  0  0  0  0  0  0  0  0  0
    3.4690    1.9140    0.0000 C   0  0  0  0  0  0  0  0  0  0  0  0
    4.8060    2.5940    0.0000 C   0  0  0  0  0  0  0  0  0  0  0  0
    4.8860    4.0920    0.0000 C   0  0  0  0  0  0  0  0  0  0  0  0
    6.2230    4.7720    0.0000 C   0  0  0  0  0  0  0  0  0  0  0  0
    3.6280    4.9100    0.0000 C   0  0  0  0  0  0  0  0  0  0  0  0
    2.2910    4.2300    0.0000 C   0  0  0  0  0  0  0  0  0  0  0  0
    6.0630    1.7760    0.0000 N   0  0  0  0  0  0  0  0  0  0  0  0
    5.9840    0.2780    0.0000 C   0  0  0  0  0  0  0  0  0  0  0  0
    7.2410   -0.5400    0.0000 N   0  0  0  0  0  0  0  0  0  0  0  0
    7.1610   -2.0380    0.0000 C   0  0  0  0  0  0  0  0  0  0  0  0
    5.8240   -2.7180    0.0000 C   0  0  0  0  0  0  0  0  0  0  0  0
    4.5670   -1.9000    0.0000 C   0  0  0  0  0  0  0  0  0  0  0  0
    4.6460   -0.4020    0.0000 N   0  0  0  0  0  0  0  0  0  0  0  0
    8.4180   -2.8560    0.0000 C   0  0  0  0  0  0  0  0  0  0  0  0
    9.7560   -2.1760    0.0000 C   0  0  0  0  0  0  0  0  0  0  0  0
   11.0130   -2.9940    0.0000 N   0  0  0  0  0  0  0  0  0  0  0  0
   10.9330   -4.4920    0.0000 C   0  0  0  0  0  0  0  0  0  0  0  0
    9.5960   -5.1720    0.0000 C   0  0  0  0  0  0  0  0  0  0  0  0
    8.3390   -4.3540    0.0000 C   0  0  0  0  0  0  0  0  0  0  0  0
   -1.7200    2.1900    0.0000 C   0  0  0  0  0  0  0  0  0  0  0  0
   -2.9770    3.0080    0.0000 C   0  0  0  0  0  0  0  0  0  0  0  0
   -4.3140    2.3280    0.0000 C   0  0  0  0  0  0  0  0  0  0  0  0
   -4.3940    0.8300    0.0000 C   0  0  0  0  0  0  0  0  0  0  0  0
   -5.7310    0.1500    0.0000 C   0  0  0  0  0  0  0  0  0  0  0  0
   -7.0680   -0.5300    0.0000 N   0  0  0  0  0  0  0  0  0  0  0  0
   -7.1480   -2.0270    0.0000 C   0  0  0  0  0  0  0  0  0  0  0  0
   -8.4850   -2.7070    0.0000 C   0  0  0  0  0  0  0  0  0  0  0  0
   -9.7420   -1.8890    0.0000 N   0  0  0  0  0  0  0  0  0  0  0  0
  -11.0790   -2.5690    0.0000 C   0  0  0  0  0  0  0  0  0  0  0  0
   -9.6630   -0.3910    0.0000 C   0  0  0  0  0  0  0  0  0  0  0  0
   -8.3260    0.2880    0.0000 C   0  0  0  0  0  0  0  0  0  0  0  0
   -3.1370    0.0120    0.0000 C   0  0  0  0  0  0  0  0  0  0  0  0
   -1.8000    0.6920    0.0000 C   0  0  0  0  0  0  0  0  0  0  0  0
    0.7950    0.5540    0.0000 H   0  0  0  0  0  0  0  0  0  0  0  0
    3.3890    0.4160    0.0000 H   0  0  0  0  0  0  0  0  0  0  0  0
    7.5600    5.4520    0.0000 H   0  0  0  0  0  0  0  0  0  0  0  0
    5.5430    6.1090    0.0000 H   0  0  0  0  0  0  0  0  0  0  0  0
    6.9030    3.4350    0.0000 H   0  0  0  0  0  0  0  0  0  0  0  0
    3.7080    6.4080    0.0000 H   0  0  0  0  0  0  0  0  0  0  0  0
    1.0340    5.0480    0.0000 H   0  0  0  0  0  0  0  0  0  0  0  0
    7.4000    2.4560    0.0000 H   0  0  0  0  0  0  0  0  0  0  0  0
    5.7440   -4.2160    0.0000 H   0  0  0  0  0  0  0  0  0  0  0  0
    3.2300   -2.5800    0.0000 H   0  0  0  0  0  0  0  0  0  0  0  0
    9.8350   -0.6780    0.0000 H   0  0  0  0  0  0  0  0  0  0  0  0
   12.1910   -5.3100    0.0000 H   0  0  0  0  0  0  0  0  0  0  0  0
    9.5160   -6.6700    0.0000 H   0  0  0  0  0  0  0  0  0  0  0  0
    7.0020   -5.0340    0.0000 H   0  0  0  0  0  0  0  0  0  0  0  0
   -2.8980    4.5060    0.0000 H   0  0  0  0  0  0  0  0  0  0  0  0
   -5.5720    3.1460    0.0000 H   0  0  0  0  0  0  0  0  0  0  0  0
   -4.8930   -1.0940    0.0000 H   0  0  0  0  0  0  0  0  0  0  0  0
   -6.2430    1.5600    0.0000 H   0  0  0  0  0  0  0  0  0  0  0  0
   -6.7110   -3.4620    0.0000 H   0  0  0  0  0  0  0  0  0  0  0  0
   -5.6480   -2.0290    0.0000 H   0  0  0  0  0  0  0  0  0  0  0  0
   -9.3680   -3.9200    0.0000 H   0  0  0  0  0  0  0  0  0  0  0  0
   -7.5830   -3.9060    0.0000 H   0  0  0  0  0  0  0  0  0  0  0  0
  -12.4160   -3.2490    0.0000 H   0  0  0  0  0  0  0  0  0  0  0  0
  -11.9170   -1.3250    0.0000 H   0  0  0  0  0  0  0  0  0  0  0  0
  -10.5680   -3.9790    0.0000 H   0  0  0  0  0  0  0  0  0  0  0  0
  -10.1000    1.0430    0.0000 H   0  0  0  0  0  0  0  0  0  0  0  0
  -11.1630   -0.3900    0.0000 H   0  0  0  0  0  0  0  0  0  0  0  0
   -7.4430    1.5010    0.0000 H   0  0  0  0  0  0  0  0  0  0  0  0
   -9.2270    1.4870    0.0000 H   0  0  0  0  0  0  0  0  0  0  0  0
   -3.2160   -1.4860    0.0000 H   0  0  0  0  0  0  0  0  0  0  0  0
   -0.5420   -0.1260    0.0000 H   0  0  0  0  0  0  0  0  0  0  0  0
  1  2  2  0  0  0  0
  2  3  1  0  0  0  0
  2 24  1  0  0  0  0
  3  4  1  0  0  0  0
  3 38  1  0  0  0  0
  4  5  2  0  0  0  0
  4 10  1  0  0  0  0
  5  6  1  0  0  0  0
  5 39  1  0  0  0  0
  6  7  2  0  0  0  0
  6 11  1  0  0  0  0
  7  8  1  0  0  0  0
  7  9  1  0  0  0  0
  8 40  1  0  0  0  0
  8 41  1  0  0  0  0
  8 42  1  0  0  0  0
  9 10  2  0  0  0  0
  9 43  1  0  0  0  0
 10 44  1  0  0  0  0
 11 12  1  0  0  0  0
 11 45  1  0  0  0  0
 12 13  2  0  0  0  0
 12 17  1  0  0  0  0
 13 14  1  0  0  0  0
 14 15  2  0  0  0  0
 14 18  1  0  0  0  0
 15 16  1  0  0  0  0
 15 46  1  0  0  0  0
 16 17  2  0  0  0  0
 16 47  1  0  0  0  0
 18 19  2  0  0  0  0
 18 23  1  0  0  0  0
 19 20  1  0  0  0  0
 19 48  1  0  0  0  0
 20 21  2  0  0  0  0
 21 22  1  0  0  0  0
 21 49  1  0  0  0  0
 22 23  2  0  0  0  0
 22 50  1  0  0  0  0
 23 51  1  0  0  0  0
 24 25  2  0  0  0  0
 24 37  1  0  0  0  0
 25 26  1  0  0  0  0
 25 52  1  0  0  0  0
 26 27  2  0  0  0  0
 26 53  1  0  0  0  0
 27 28  1  0  0  0  0
 27 36  1  0  0  0  0
 28 29  1  0  0  0  0
 28 54  1  0  0  0  0
 28 55  1  0  0  0  0
 29 30  1  0  0  0  0
 29 35  1  0  0  0  0
 30 31  1  0  0  0  0
 30 56  1  0  0  0  0
 30 57  1  0  0  0  0
 31 32  1  0  0  0  0
 31 58  1  0  0  0  0
 31 59  1  0  0  0  0
 32 33  1  0  0  0  0
 32 34  1  0  0  0  0
 33 60  1  0  0  0  0
 33 61  1  0  0  0  0
 33 62  1  0  0  0  0
 34 35  1  0  0  0  0
 34 63  1  0  0  0  0
 34 64  1  0  0  0  0
 35 65  1  0  0  0  0
 35 66  1  0  0  0  0
 36 37  2  0  0  0  0
 36 67  1  0  0  0  0
 37 68  1  0  0  0  0
M  END
$$$$
