2D_structures\o1_MMV180402_2D.pdb
 OpenBabel02282409193D

 28 30  0  0  1  0  0  0  0  0999 V2000
   -1.5710   -0.7040    0.0000 N   0  0  0  0  0  0  0  0  0  0  0  0
   -0.4320    0.2720    0.0000 C   0  0  1  0  0  0  0  0  0  0  0  0
    0.3050    1.5780    0.0000 C   0  0  1  0  0  0  0  0  0  0  0  0
   -1.1950    1.5630    0.0000 C   0  0  0  0  0  0  0  0  0  0  0  0
   -1.9320    0.2570    0.0000 C   0  0  1  0  0  0  0  0  0  0  0  0
    1.2770   -0.4610    0.0000 C   0  0  0  0  0  0  0  0  0  0  0  0
    2.5680    0.3020    0.0000 C   0  0  1  0  0  0  0  0  0  0  0  0
    1.8050    1.5930    0.0000 C   0  0  0  0  0  0  0  0  0  0  0  0
    1.8310   -1.0040    0.0000 C   0  0  0  0  0  0  0  0  0  0  0  0
    0.3310   -1.0200    0.0000 C   0  0  1  0  0  0  0  0  0  0  0  0
   -1.1690   -1.0350    0.0000 C   0  0  0  0  0  0  0  0  0  0  0  0
   -3.0360   -0.3810    0.0000 H   0  0  0  0  0  0  0  0  0  0  0  0
   -1.6610   -2.2010    0.0000 H   0  0  0  0  0  0  0  0  0  0  0  0
   -1.7870    0.9160    0.0000 H   0  0  0  0  0  0  0  0  0  0  0  0
   -0.2950    2.9530    0.0000 H   0  0  0  0  0  0  0  0  0  0  0  0
   -1.1320    3.0620    0.0000 H   0  0  0  0  0  0  0  0  0  0  0  0
   -2.6100    2.0620    0.0000 H   0  0  0  0  0  0  0  0  0  0  0  0
   -3.4220    0.4240    0.0000 H   0  0  0  0  0  0  0  0  0  0  0  0
    1.9480   -1.8030    0.0000 H   0  0  0  0  0  0  0  0  0  0  0  0
    0.0720   -1.3550    0.0000 H   0  0  0  0  0  0  0  0  0  0  0  0
    4.0680    0.3170    0.0000 H   0  0  0  0  0  0  0  0  0  0  0  0
    1.5290    3.0680    0.0000 H   0  0  0  0  0  0  0  0  0  0  0  0
    3.2090    2.1210    0.0000 H   0  0  0  0  0  0  0  0  0  0  0  0
    3.2460   -1.5030    0.0000 H   0  0  0  0  0  0  0  0  0  0  0  0
    1.5860   -2.4840    0.0000 H   0  0  0  0  0  0  0  0  0  0  0  0
   -0.0680   -2.4660    0.0000 H   0  0  0  0  0  0  0  0  0  0  0  0
   -2.5730   -1.5620    0.0000 H   0  0  0  0  0  0  0  0  0  0  0  0
   -0.8930   -2.5090    0.0000 H   0  0  0  0  0  0  0  0  0  0  0  0
  1  2  1  0  0  0  0
  1 12  1  0  0  0  0
  1 13  1  0  0  0  0
  2  3  1  0  0  0  0
  2 10  1  0  0  0  0
  2 14  1  6  0  0  0
  3  4  1  0  0  0  0
  3  8  1  0  0  0  0
  3 15  1  6  0  0  0
  4  5  1  0  0  0  0
  4 16  1  0  0  0  0
  4 17  1  0  0  0  0
  5  6  1  0  0  0  0
  5 11  1  0  0  0  0
  5 18  1  6  0  0  0
  6  7  1  0  0  0  0
  6 19  1  0  0  0  0
  6 20  1  0  0  0  0
  7  8  1  0  0  0  0
  7  9  1  0  0  0  0
  7 21  1  6  0  0  0
  8 22  1  0  0  0  0
  8 23  1  0  0  0  0
  9 10  1  0  0  0  0
  9 24  1  0  0  0  0
  9 25  1  0  0  0  0
 10 11  1  0  0  0  0
 10 26  1  6  0  0  0
 11 27  1  0  0  0  0
 11 28  1  0  0  0  0
M  END
$$$$
