2D_structures\o20_MMV003820_2D.pdb
 OpenBabel02282409193D

 52 54  0  0  1  0  0  0  0  0999 V2000
   -1.6740    0.1790    0.0000 O   0  0  0  0  0  0  0  0  0  0  0  0
   -1.3470   -1.2850    0.0000 C   0  0  0  0  0  0  0  0  0  0  0  0
   -1.0190   -2.7490    0.0000 C   0  0  1  0  0  0  0  0  0  0  0  0
    0.4450   -2.4210    0.0000 N   0  0  0  0  0  0  0  0  0  0  0  0
    0.8930   -0.9890    0.0000 C   0  0  0  0  0  0  0  0  0  0  0  0
   -0.1230    0.1150    0.0000 N   0  0  0  0  0  0  0  0  0  0  0  0
    0.3250    1.5460    0.0000 C   0  0  0  0  0  0  0  0  0  0  0  0
    1.7890    1.8740    0.0000 C   0  0  0  0  0  0  0  0  0  0  0  0
    2.5240    3.1810    0.0000 N   0  0  0  0  0  0  0  0  0  0  0  0
    3.9950    2.8860    0.0000 C   0  0  0  0  0  0  0  0  0  0  0  0
    4.1680    1.3960    0.0000 N   0  0  0  0  0  0  0  0  0  0  0  0
    2.8050    0.7710    0.0000 C   0  0  0  0  0  0  0  0  0  0  0  0
    2.3570   -0.6610    0.0000 N   0  0  0  0  0  0  0  0  0  0  0  0
    5.4750    0.6600    0.0000 C   0  0  0  0  0  0  0  0  0  0  0  0
    6.2110    1.9670    0.0000 C   0  0  0  0  0  0  0  0  0  0  0  0
    4.7400   -0.6470    0.0000 C   0  0  0  0  0  0  0  0  0  0  0  0
   -0.6910    2.6500    0.0000 N   0  0  0  0  0  0  0  0  0  0  0  0
   -2.1550    2.3220    0.0000 C   0  0  0  0  0  0  0  0  0  0  0  0
   -3.6180    1.9940    0.0000 C   0  0  0  0  0  0  0  0  0  0  0  0
   -4.6340    3.0980    0.0000 C   0  0  0  0  0  0  0  0  0  0  0  0
   -6.0980    2.7700    0.0000 C   0  0  0  0  0  0  0  0  0  0  0  0
   -6.5460    1.3380    0.0000 C   0  0  0  0  0  0  0  0  0  0  0  0
   -5.5300    0.2340    0.0000 C   0  0  0  0  0  0  0  0  0  0  0  0
   -4.0660    0.5620    0.0000 C   0  0  0  0  0  0  0  0  0  0  0  0
   -0.6910   -4.2120    0.0000 C   0  0  0  0  0  0  0  0  0  0  0  0
   -0.3630   -5.6760    0.0000 C   0  0  0  0  0  0  0  0  0  0  0  0
   -3.1060    0.6270    0.0000 H   0  0  0  0  0  0  0  0  0  0  0  0
   -2.8100   -1.6130    0.0000 H   0  0  0  0  0  0  0  0  0  0  0  0
   -0.3690   -0.7950    0.0000 H   0  0  0  0  0  0  0  0  0  0  0  0
   -2.4820   -3.0760    0.0000 H   0  0  0  0  0  0  0  0  0  0  0  0
    1.5880   -3.3920    0.0000 H   0  0  0  0  0  0  0  0  0  0  0  0
    5.0990    3.9020    0.0000 H   0  0  0  0  0  0  0  0  0  0  0  0
    6.7820   -0.0760    0.0000 H   0  0  0  0  0  0  0  0  0  0  0  0
    6.9470    3.2740    0.0000 H   0  0  0  0  0  0  0  0  0  0  0  0
    7.5180    1.2320    0.0000 H   0  0  0  0  0  0  0  0  0  0  0  0
    4.9040    2.7030    0.0000 H   0  0  0  0  0  0  0  0  0  0  0  0
    4.0040   -1.9540    0.0000 H   0  0  0  0  0  0  0  0  0  0  0  0
    6.0470   -1.3830    0.0000 H   0  0  0  0  0  0  0  0  0  0  0  0
    3.4320    0.0890    0.0000 H   0  0  0  0  0  0  0  0  0  0  0  0
   -0.2430    4.0810    0.0000 H   0  0  0  0  0  0  0  0  0  0  0  0
   -1.5490    1.1150    0.0000 H   0  0  0  0  0  0  0  0  0  0  0  0
   -2.4830    3.7860    0.0000 H   0  0  0  0  0  0  0  0  0  0  0  0
   -4.1860    4.5290    0.0000 H   0  0  0  0  0  0  0  0  0  0  0  0
   -7.1140    3.8730    0.0000 H   0  0  0  0  0  0  0  0  0  0  0  0
   -8.0090    1.0100    0.0000 H   0  0  0  0  0  0  0  0  0  0  0  0
   -5.9780   -1.1970    0.0000 H   0  0  0  0  0  0  0  0  0  0  0  0
   -3.0500   -0.5410    0.0000 H   0  0  0  0  0  0  0  0  0  0  0  0
   -2.1540   -4.5400    0.0000 H   0  0  0  0  0  0  0  0  0  0  0  0
    0.8020   -4.0650    0.0000 H   0  0  0  0  0  0  0  0  0  0  0  0
   -0.0350   -7.1400    0.0000 H   0  0  0  0  0  0  0  0  0  0  0  0
   -1.8260   -6.0040    0.0000 H   0  0  0  0  0  0  0  0  0  0  0  0
    1.1010   -5.3480    0.0000 H   0  0  0  0  0  0  0  0  0  0  0  0
  1  2  1  0  0  0  0
  1 27  1  0  0  0  0
  2  3  1  0  0  0  0
  2 28  1  0  0  0  0
  2 29  1  0  0  0  0
  3  4  1  0  0  0  0
  3 25  1  0  0  0  0
  3 30  1  6  0  0  0
  4  5  1  0  0  0  0
  4 31  1  0  0  0  0
  5  6  2  0  0  0  0
  5 13  1  0  0  0  0
  6  7  1  0  0  0  0
  7  8  2  0  0  0  0
  7 17  1  0  0  0  0
  8  9  1  0  0  0  0
  8 12  1  0  0  0  0
  9 10  2  0  0  0  0
 10 11  1  0  0  0  0
 10 32  1  0  0  0  0
 11 12  1  0  0  0  0
 11 14  1  0  0  0  0
 12 13  2  0  0  0  0
 14 15  1  0  0  0  0
 14 16  1  0  0  0  0
 14 33  1  0  0  0  0
 15 34  1  0  0  0  0
 15 35  1  0  0  0  0
 15 36  1  0  0  0  0
 16 37  1  0  0  0  0
 16 38  1  0  0  0  0
 16 39  1  0  0  0  0
 17 18  1  0  0  0  0
 17 40  1  0  0  0  0
 18 19  1  0  0  0  0
 18 41  1  0  0  0  0
 18 42  1  0  0  0  0
 19 20  2  0  0  0  0
 19 24  1  0  0  0  0
 20 21  1  0  0  0  0
 20 43  1  0  0  0  0
 21 22  2  0  0  0  0
 21 44  1  0  0  0  0
 22 23  1  0  0  0  0
 22 45  1  0  0  0  0
 23 24  2  0  0  0  0
 23 46  1  0  0  0  0
 24 47  1  0  0  0  0
 25 26  1  0  0  0  0
 25 48  1  0  0  0  0
 25 49  1  0  0  0  0
 26 50  1  0  0  0  0
 26 51  1  0  0  0  0
 26 52  1  0  0  0  0
M  END
$$$$
