2D_structures\o22_MMV1580491_2D.pdb
 OpenBabel02282409193D

 82 84  0  0  1  0  0  0  0  0999 V2000
    2.7130   -6.3690    0.0000 F   0  0  0  0  0  0  0  0  0  0  0  0
    2.1880   -4.9640    0.0000 C   0  0  0  0  0  0  0  0  0  0  0  0
    0.7090   -4.7150    0.0000 C   0  0  0  0  0  0  0  0  0  0  0  0
    0.1850   -3.3100    0.0000 C   0  0  0  0  0  0  0  0  0  0  0  0
    1.1400   -2.1530    0.0000 C   0  0  0  0  0  0  0  0  0  0  0  0
    0.6160   -0.7480    0.0000 C   0  0  0  0  0  0  0  0  0  0  0  0
    0.0920    0.6580    0.0000 C   0  0  1  0  0  0  0  0  0  0  0  0
   -1.3140    0.1340    0.0000 C   0  0  0  0  0  0  0  0  0  0  0  0
   -1.7410   -1.3040    0.0000 O   0  0  0  0  0  0  0  0  0  0  0  0
   -2.4700    1.0890    0.0000 N   0  0  0  0  0  0  0  0  0  0  0  0
   -3.8760    0.5640    0.0000 C   0  0  1  0  0  0  0  0  0  0  0  0
   -5.2810    0.0400    0.0000 C   0  0  0  0  0  0  0  0  0  0  0  0
   -5.5300   -1.4390    0.0000 C   0  0  0  0  0  0  0  0  0  0  0  0
   -6.9350   -1.9630    0.0000 C   0  0  0  0  0  0  0  0  0  0  0  0
   -8.0920   -1.0080    0.0000 O   0  0  0  0  0  0  0  0  0  0  0  0
   -7.1840   -3.4430    0.0000 O   0  0  0  0  0  0  0  0  0  0  0  0
   -8.5900   -3.9670    0.0000 C   0  0  0  0  0  0  0  0  0  0  0  0
   -9.9950   -4.4910    0.0000 C   0  0  0  0  0  0  0  0  0  0  0  0
   -4.4000    1.9700    0.0000 C   0  0  0  0  0  0  0  0  0  0  0  0
   -4.9240    3.3750    0.0000 C   0  0  1  0  0  0  0  0  0  0  0  0
   -5.1450    4.8590    0.0000 C   0  0  0  0  0  0  0  0  0  0  0  0
   -4.0740    5.9090    0.0000 O   0  0  0  0  0  0  0  0  0  0  0  0
   -6.6240    5.1080    0.0000 N   0  0  0  0  0  0  0  0  0  0  0  0
   -7.3180    3.7780    0.0000 C   0  0  0  0  0  0  0  0  0  0  0  0
   -6.2670    2.7070    0.0000 C   0  0  0  0  0  0  0  0  0  0  0  0
    1.4970    1.1820    0.0000 C   0  0  0  0  0  0  0  0  0  0  0  0
    2.9020    1.7060    0.0000 C   0  0  0  0  0  0  0  0  0  0  0  0
    2.6040    3.1760    0.0000 O   0  0  0  0  0  0  0  0  0  0  0  0
    4.0590    0.7510    0.0000 C   0  0  1  0  0  0  0  0  0  0  0  0
    5.2160   -0.2040    0.0000 N   0  0  0  0  0  0  0  0  0  0  0  0
    6.6210    0.3200    0.0000 C   0  0  0  0  0  0  0  0  0  0  0  0
    7.0480    1.7580    0.0000 O   0  0  0  0  0  0  0  0  0  0  0  0
    7.7780   -0.6350    0.0000 C   0  0  0  0  0  0  0  0  0  0  0  0
    7.6850   -2.1320    0.0000 N   0  0  0  0  0  0  0  0  0  0  0  0
    9.0800   -2.6830    0.0000 O   0  0  0  0  0  0  0  0  0  0  0  0
   10.0350   -1.5260    0.0000 C   0  0  0  0  0  0  0  0  0  0  0  0
    9.2300   -0.2600    0.0000 C   0  0  0  0  0  0  0  0  0  0  0  0
   11.5330   -1.6190    0.0000 C   0  0  0  0  0  0  0  0  0  0  0  0
    5.0140    1.9080    0.0000 C   0  0  0  0  0  0  0  0  0  0  0  0
    3.8570    2.8630    0.0000 C   0  0  0  0  0  0  0  0  0  0  0  0
    5.9690    3.0650    0.0000 C   0  0  0  0  0  0  0  0  0  0  0  0
    2.6190   -2.4020    0.0000 C   0  0  0  0  0  0  0  0  0  0  0  0
    3.1430   -3.8070    0.0000 C   0  0  0  0  0  0  0  0  0  0  0  0
   -0.2460   -5.8720    0.0000 H   0  0  0  0  0  0  0  0  0  0  0  0
   -1.2940   -3.0610    0.0000 H   0  0  0  0  0  0  0  0  0  0  0  0
    2.0750   -0.3990    0.0000 H   0  0  0  0  0  0  0  0  0  0  0  0
   -0.7150   -1.4390    0.0000 H   0  0  0  0  0  0  0  0  0  0  0  0
   -0.4330    2.0630    0.0000 H   0  0  0  0  0  0  0  0  0  0  0  0
   -2.0430    2.5260    0.0000 H   0  0  0  0  0  0  0  0  0  0  0  0
   -3.3520   -0.8410    0.0000 H   0  0  0  0  0  0  0  0  0  0  0  0
   -6.5460    0.8470    0.0000 H   0  0  0  0  0  0  0  0  0  0  0  0
   -4.3730   -2.3940    0.0000 H   0  0  0  0  0  0  0  0  0  0  0  0
   -8.0650   -5.3720    0.0000 H   0  0  0  0  0  0  0  0  0  0  0  0
   -9.1140   -2.5610    0.0000 H   0  0  0  0  0  0  0  0  0  0  0  0
  -10.5190   -3.0860    0.0000 H   0  0  0  0  0  0  0  0  0  0  0  0
   -9.4710   -5.8960    0.0000 H   0  0  0  0  0  0  0  0  0  0  0  0
  -11.4000   -5.0150    0.0000 H   0  0  0  0  0  0  0  0  0  0  0  0
   -5.1470    1.6910    0.0000 H   0  0  0  0  0  0  0  0  0  0  0  0
   -3.0690    2.6610    0.0000 H   0  0  0  0  0  0  0  0  0  0  0  0
   -3.4720    3.7500    0.0000 H   0  0  0  0  0  0  0  0  0  0  0  0
   -7.2920    6.4510    0.0000 H   0  0  0  0  0  0  0  0  0  0  0  0
   -8.5680    4.6070    0.0000 H   0  0  0  0  0  0  0  0  0  0  0  0
   -8.2730    2.6210    0.0000 H   0  0  0  0  0  0  0  0  0  0  0  0
   -7.4420    1.7740    0.0000 H   0  0  0  0  0  0  0  0  0  0  0  0
   -5.9250    1.9870    0.0000 H   0  0  0  0  0  0  0  0  0  0  0  0
    2.1890   -0.1490    0.0000 H   0  0  0  0  0  0  0  0  0  0  0  0
    0.9730    2.5870    0.0000 H   0  0  0  0  0  0  0  0  0  0  0  0
    3.1040   -0.4060    0.0000 H   0  0  0  0  0  0  0  0  0  0  0  0
    4.9670   -1.6830    0.0000 H   0  0  0  0  0  0  0  0  0  0  0  0
    9.7810    1.1350    0.0000 H   0  0  0  0  0  0  0  0  0  0  0  0
   11.6250   -0.1220    0.0000 H   0  0  0  0  0  0  0  0  0  0  0  0
   11.4400   -3.1160    0.0000 H   0  0  0  0  0  0  0  0  0  0  0  0
   13.0300   -1.7110    0.0000 H   0  0  0  0  0  0  0  0  0  0  0  0
    6.3680    1.2610    0.0000 H   0  0  0  0  0  0  0  0  0  0  0  0
    4.6640    4.1270    0.0000 H   0  0  0  0  0  0  0  0  0  0  0  0
    2.6510    1.9720    0.0000 H   0  0  0  0  0  0  0  0  0  0  0  0
    2.8260    3.9520    0.0000 H   0  0  0  0  0  0  0  0  0  0  0  0
    4.9380    4.1530    0.0000 H   0  0  0  0  0  0  0  0  0  0  0  0
    7.2340    2.2580    0.0000 H   0  0  0  0  0  0  0  0  0  0  0  0
    6.9240    4.2210    0.0000 H   0  0  0  0  0  0  0  0  0  0  0  0
    3.5740   -1.2450    0.0000 H   0  0  0  0  0  0  0  0  0  0  0  0
    4.6230   -4.0560    0.0000 H   0  0  0  0  0  0  0  0  0  0  0  0
  1  2  1  0  0  0  0
  2  3  2  0  0  0  0
  2 43  1  0  0  0  0
  3  4  1  0  0  0  0
  3 44  1  0  0  0  0
  4  5  2  0  0  0  0
  4 45  1  0  0  0  0
  5  6  1  0  0  0  0
  5 42  1  0  0  0  0
  6  7  1  0  0  0  0
  6 46  1  0  0  0  0
  6 47  1  0  0  0  0
  7  8  1  0  0  0  0
  7 26  1  0  0  0  0
  7 48  1  6  0  0  0
  8  9  2  0  0  0  0
  8 10  1  0  0  0  0
 10 11  1  0  0  0  0
 10 49  1  0  0  0  0
 11 12  1  0  0  0  0
 11 19  1  0  0  0  0
 11 50  1  6  0  0  0
 12 13  2  0  0  0  0
 12 51  1  0  0  0  0
 13 14  1  0  0  0  0
 13 52  1  0  0  0  0
 14 15  2  0  0  0  0
 14 16  1  0  0  0  0
 16 17  1  0  0  0  0
 17 18  1  0  0  0  0
 17 53  1  0  0  0  0
 17 54  1  0  0  0  0
 18 55  1  0  0  0  0
 18 56  1  0  0  0  0
 18 57  1  0  0  0  0
 19 20  1  0  0  0  0
 19 58  1  0  0  0  0
 19 59  1  0  0  0  0
 20 21  1  0  0  0  0
 20 25  1  0  0  0  0
 20 60  1  1  0  0  0
 21 22  2  0  0  0  0
 21 23  1  0  0  0  0
 23 24  1  0  0  0  0
 23 61  1  0  0  0  0
 24 25  1  0  0  0  0
 24 62  1  0  0  0  0
 24 63  1  0  0  0  0
 25 64  1  0  0  0  0
 25 65  1  0  0  0  0
 26 27  1  0  0  0  0
 26 66  1  0  0  0  0
 26 67  1  0  0  0  0
 27 28  2  0  0  0  0
 27 29  1  0  0  0  0
 29 30  1  0  0  0  0
 29 39  1  0  0  0  0
 29 68  1  1  0  0  0
 30 31  1  0  0  0  0
 30 69  1  0  0  0  0
 31 32  2  0  0  0  0
 31 33  1  0  0  0  0
 33 34  2  0  0  0  0
 33 37  1  0  0  0  0
 34 35  1  0  0  0  0
 35 36  1  0  0  0  0
 36 37  2  0  0  0  0
 36 38  1  0  0  0  0
 37 70  1  0  0  0  0
 38 71  1  0  0  0  0
 38 72  1  0  0  0  0
 38 73  1  0  0  0  0
 39 40  1  0  0  0  0
 39 41  1  0  0  0  0
 39 74  1  0  0  0  0
 40 75  1  0  0  0  0
 40 76  1  0  0  0  0
 40 77  1  0  0  0  0
 41 78  1  0  0  0  0
 41 79  1  0  0  0  0
 41 80  1  0  0  0  0
 42 43  2  0  0  0  0
 42 81  1  0  0  0  0
 43 82  1  0  0  0  0
M  END
$$$$
