2D_structures\o23_MMV1580492_2D.pdb
 OpenBabel02282409193D

 54 57  0  0  1  0  0  0  0  0999 V2000
    1.2110    1.7590    0.0000 O   0  0  0  0  0  0  0  0  0  0  0  0
   -0.2770    1.5630    0.0000 N   0  0  0  0  0  0  0  0  0  0  0  0
   -0.5500    0.0890    0.0000 C   0  0  0  0  0  0  0  0  0  0  0  0
   -1.9040   -0.5570    0.0000 C   0  0  0  0  0  0  0  0  0  0  0  0
   -3.1400    0.2930    0.0000 C   0  0  0  0  0  0  0  0  0  0  0  0
   -4.4940   -0.3530    0.0000 C   0  0  0  0  0  0  0  0  0  0  0  0
   -4.6120   -1.8480    0.0000 C   0  0  0  0  0  0  0  0  0  0  0  0
   -3.3760   -2.6980    0.0000 C   0  0  0  0  0  0  0  0  0  0  0  0
   -2.0220   -2.0520    0.0000 C   0  0  0  0  0  0  0  0  0  0  0  0
   -5.5260    0.7350    0.0000 C   0  0  1  0  0  0  0  0  0  0  0  0
   -6.5010   -0.4050    0.0000 N   0  0  0  0  0  0  0  0  0  0  0  0
   -7.9760   -0.1320    0.0000 C   0  0  0  0  0  0  0  0  0  0  0  0
   -9.4500    0.1420    0.0000 C   0  0  0  0  0  0  0  0  0  0  0  0
  -10.9250    0.4150    0.0000 O   0  0  0  0  0  0  0  0  0  0  0  0
   -4.8110    2.0530    0.0000 C   0  0  0  0  0  0  0  0  0  0  0  0
   -3.3360    1.7800    0.0000 C   0  0  0  0  0  0  0  0  0  0  0  0
    0.7680   -0.6270    0.0000 N   0  0  0  0  0  0  0  0  0  0  0  0
    1.8560    0.4050    0.0000 C   0  0  0  0  0  0  0  0  0  0  0  0
    3.3310    0.1320    0.0000 C   0  0  0  0  0  0  0  0  0  0  0  0
    3.8320   -1.2820    0.0000 C   0  0  0  0  0  0  0  0  0  0  0  0
    5.3070   -1.5560    0.0000 C   0  0  0  0  0  0  0  0  0  0  0  0
    6.2810   -0.4150    0.0000 C   0  0  0  0  0  0  0  0  0  0  0  0
    7.7560   -0.6890    0.0000 O   0  0  0  0  0  0  0  0  0  0  0  0
    8.7300    0.4520    0.0000 C   0  0  0  0  0  0  0  0  0  0  0  0
    7.5890    1.4260    0.0000 C   0  0  0  0  0  0  0  0  0  0  0  0
    9.8710   -0.5230    0.0000 C   0  0  0  0  0  0  0  0  0  0  0  0
    5.7800    0.9990    0.0000 C   0  0  0  0  0  0  0  0  0  0  0  0
    4.3050    1.2720    0.0000 C   0  0  0  0  0  0  0  0  0  0  0  0
    5.8070   -2.9700    0.0000 C   0  0  0  0  0  0  0  0  0  0  0  0
    6.3080   -4.3840    0.0000 N   0  0  0  0  0  0  0  0  0  0  0  0
   -5.7500   -2.5740    0.0000 H   0  0  0  0  0  0  0  0  0  0  0  0
   -3.4940   -4.1930    0.0000 H   0  0  0  0  0  0  0  0  0  0  0  0
   -0.7860   -2.9020    0.0000 H   0  0  0  0  0  0  0  0  0  0  0  0
   -6.7630    1.5850    0.0000 H   0  0  0  0  0  0  0  0  0  0  0  0
   -6.2090   -1.7230    0.0000 H   0  0  0  0  0  0  0  0  0  0  0  0
   -7.7020    1.3430    0.0000 H   0  0  0  0  0  0  0  0  0  0  0  0
   -8.2490   -1.6070    0.0000 H   0  0  0  0  0  0  0  0  0  0  0  0
   -9.1770    1.6170    0.0000 H   0  0  0  0  0  0  0  0  0  0  0  0
   -9.7240   -1.3330    0.0000 H   0  0  0  0  0  0  0  0  0  0  0  0
  -11.9000   -0.7250    0.0000 H   0  0  0  0  0  0  0  0  0  0  0  0
   -6.1960    2.6280    0.0000 H   0  0  0  0  0  0  0  0  0  0  0  0
   -4.3840    3.4920    0.0000 H   0  0  0  0  0  0  0  0  0  0  0  0
   -3.2180    3.2750    0.0000 H   0  0  0  0  0  0  0  0  0  0  0  0
   -1.8360    1.8190    0.0000 H   0  0  0  0  0  0  0  0  0  0  0  0
    2.8570   -2.4230    0.0000 H   0  0  0  0  0  0  0  0  0  0  0  0
    9.7040    1.5920    0.0000 H   0  0  0  0  0  0  0  0  0  0  0  0
    7.0510    2.0140    0.0000 H   0  0  0  0  0  0  0  0  0  0  0  0
    8.5640    2.5660    0.0000 H   0  0  0  0  0  0  0  0  0  0  0  0
    6.6000    0.7210    0.0000 H   0  0  0  0  0  0  0  0  0  0  0  0
   11.0110   -1.4970    0.0000 H   0  0  0  0  0  0  0  0  0  0  0  0
   10.8450    0.6180    0.0000 H   0  0  0  0  0  0  0  0  0  0  0  0
    8.8960   -1.6630    0.0000 H   0  0  0  0  0  0  0  0  0  0  0  0
    6.2200    1.6630    0.0000 H   0  0  0  0  0  0  0  0  0  0  0  0
    3.8050    2.6860    0.0000 H   0  0  0  0  0  0  0  0  0  0  0  0
  1  2  1  0  0  0  0
  1 18  1  0  0  0  0
  2  3  2  0  0  0  0
  3  4  1  0  0  0  0
  3 17  1  0  0  0  0
  4  5  2  0  0  0  0
  4  9  1  0  0  0  0
  5  6  1  0  0  0  0
  5 16  1  0  0  0  0
  6  7  2  0  0  0  0
  6 10  1  0  0  0  0
  7  8  1  0  0  0  0
  7 31  1  0  0  0  0
  8  9  2  0  0  0  0
  8 32  1  0  0  0  0
  9 33  1  0  0  0  0
 10 11  1  0  0  0  0
 10 15  1  0  0  0  0
 10 34  1  6  0  0  0
 11 12  1  0  0  0  0
 11 35  1  0  0  0  0
 12 13  1  0  0  0  0
 12 36  1  0  0  0  0
 12 37  1  0  0  0  0
 13 14  1  0  0  0  0
 13 38  1  0  0  0  0
 13 39  1  0  0  0  0
 14 40  1  0  0  0  0
 15 16  1  0  0  0  0
 15 41  1  0  0  0  0
 15 42  1  0  0  0  0
 16 43  1  0  0  0  0
 16 44  1  0  0  0  0
 17 18  2  0  0  0  0
 18 19  1  0  0  0  0
 19 20  2  0  0  0  0
 19 28  1  0  0  0  0
 20 21  1  0  0  0  0
 20 45  1  0  0  0  0
 21 22  2  0  0  0  0
 21 29  1  0  0  0  0
 22 23  1  0  0  0  0
 22 27  1  0  0  0  0
 23 24  1  0  0  0  0
 24 25  1  0  0  0  0
 24 26  1  0  0  0  0
 24 46  1  0  0  0  0
 25 47  1  0  0  0  0
 25 48  1  0  0  0  0
 25 49  1  0  0  0  0
 26 50  1  0  0  0  0
 26 51  1  0  0  0  0
 26 52  1  0  0  0  0
 27 28  2  0  0  0  0
 27 53  1  0  0  0  0
 28 54  1  0  0  0  0
 29 30  3  0  0  0  0
M  END
$$$$
