2D_structures\o28_MMV1782105_2D.pdb
 OpenBabel02282409193D

 28 30  0  0  0  0  0  0  0  0999 V2000
   -6.4860    1.4420    0.0000 Br  0  0  0  0  0  0  0  0  0  0  0  0
   -5.2270    0.6260    0.0000 C   0  0  0  0  0  0  0  0  0  0  0  0
   -3.8910    1.3080    0.0000 C   0  0  0  0  0  0  0  0  0  0  0  0
   -2.6320    0.4920    0.0000 C   0  0  0  0  0  0  0  0  0  0  0  0
   -2.7100   -1.0060    0.0000 C   0  0  0  0  0  0  0  0  0  0  0  0
   -1.4510   -1.8220    0.0000 O   0  0  0  0  0  0  0  0  0  0  0  0
   -0.1150   -1.1400    0.0000 C   0  0  0  0  0  0  0  0  0  0  0  0
    1.1440   -1.9560    0.0000 O   0  0  0  0  0  0  0  0  0  0  0  0
   -0.0380    0.3580    0.0000 C   0  0  0  0  0  0  0  0  0  0  0  0
   -1.2960    1.1740    0.0000 C   0  0  0  0  0  0  0  0  0  0  0  0
    1.2980    1.0400    0.0000 C   0  0  0  0  0  0  0  0  0  0  0  0
    2.6340    1.7220    0.0000 S   0  0  0  0  0  0  0  0  0  0  0  0
    3.8930    0.9060    0.0000 C   0  0  0  0  0  0  0  0  0  0  0  0
    5.2930    1.4450    0.0000 N   0  0  0  0  0  0  0  0  0  0  0  0
    6.2380    0.2800    0.0000 C   0  0  0  0  0  0  0  0  0  0  0  0
    5.4220   -0.9790    0.0000 C   0  0  0  0  0  0  0  0  0  0  0  0
    3.9720   -0.5920    0.0000 N   0  0  0  0  0  0  0  0  0  0  0  0
   -4.0460   -1.6880    0.0000 C   0  0  0  0  0  0  0  0  0  0  0  0
   -5.3040   -0.8720    0.0000 C   0  0  0  0  0  0  0  0  0  0  0  0
   -3.8140    2.8060    0.0000 H   0  0  0  0  0  0  0  0  0  0  0  0
   -1.2190    2.6720    0.0000 H   0  0  0  0  0  0  0  0  0  0  0  0
    0.6160    2.3760    0.0000 H   0  0  0  0  0  0  0  0  0  0  0  0
    1.9800   -0.2960    0.0000 H   0  0  0  0  0  0  0  0  0  0  0  0
    7.7360    0.3600    0.0000 H   0  0  0  0  0  0  0  0  0  0  0  0
    5.9600   -2.3790    0.0000 H   0  0  0  0  0  0  0  0  0  0  0  0
    2.8080   -1.5370    0.0000 H   0  0  0  0  0  0  0  0  0  0  0  0
   -4.1230   -3.1860    0.0000 H   0  0  0  0  0  0  0  0  0  0  0  0
   -6.6400   -1.5540    0.0000 H   0  0  0  0  0  0  0  0  0  0  0  0
  1  2  1  0  0  0  0
  2  3  2  0  0  0  0
  2 19  1  0  0  0  0
  3  4  1  0  0  0  0
  3 20  1  0  0  0  0
  4  5  2  0  0  0  0
  4 10  1  0  0  0  0
  5  6  1  0  0  0  0
  5 18  1  0  0  0  0
  6  7  1  0  0  0  0
  7  8  2  0  0  0  0
  7  9  1  0  0  0  0
  9 10  2  0  0  0  0
  9 11  1  0  0  0  0
 10 21  1  0  0  0  0
 11 12  1  0  0  0  0
 11 22  1  0  0  0  0
 11 23  1  0  0  0  0
 12 13  1  0  0  0  0
 13 14  2  0  0  0  0
 13 17  1  0  0  0  0
 14 15  1  0  0  0  0
 15 16  2  0  0  0  0
 15 24  1  0  0  0  0
 16 17  1  0  0  0  0
 16 25  1  0  0  0  0
 17 26  1  0  0  0  0
 18 19  2  0  0  0  0
 18 27  1  0  0  0  0
 19 28  1  0  0  0  0
M  END
$$$$
