2D_structures\o30_MMV1782101_2D.pdb
 OpenBabel02282409193D

 54 56  0  0  0  0  0  0  0  0999 V2000
    5.9010   -1.9330    0.0000 O   0  0  0  0  0  0  0  0  0  0  0  0
    5.7920   -0.4370    0.0000 C   0  0  0  0  0  0  0  0  0  0  0  0
    6.9380    0.5310    0.0000 N   0  0  0  0  0  0  0  0  0  0  0  0
    8.3950    0.1720    0.0000 C   0  0  0  0  0  0  0  0  0  0  0  0
    8.8130   -1.2680    0.0000 C   0  0  0  0  0  0  0  0  0  0  0  0
   10.2690   -1.6270    0.0000 C   0  0  0  0  0  0  0  0  0  0  0  0
   11.3080   -0.5440    0.0000 N   0  0  0  0  0  0  0  0  0  0  0  0
   10.8900    0.8960    0.0000 C   0  0  0  0  0  0  0  0  0  0  0  0
    9.4330    1.2550    0.0000 C   0  0  0  0  0  0  0  0  0  0  0  0
    6.3720    1.9200    0.0000 C   0  0  0  0  0  0  0  0  0  0  0  0
    4.8760    1.8100    0.0000 C   0  0  0  0  0  0  0  0  0  0  0  0
    4.5180    0.3540    0.0000 N   0  0  0  0  0  0  0  0  0  0  0  0
    3.1290   -0.2130    0.0000 C   0  0  0  0  0  0  0  0  0  0  0  0
    1.7400   -0.7790    0.0000 C   0  0  0  0  0  0  0  0  0  0  0  0
    0.3510   -1.3450    0.0000 C   0  0  0  0  0  0  0  0  0  0  0  0
   -1.0380   -1.9120    0.0000 C   0  0  0  0  0  0  0  0  0  0  0  0
   -2.4270   -2.4780    0.0000 O   0  0  0  0  0  0  0  0  0  0  0  0
   -3.6120   -1.5580    0.0000 C   0  0  0  0  0  0  0  0  0  0  0  0
   -3.4080   -0.0720    0.0000 C   0  0  0  0  0  0  0  0  0  0  0  0
   -4.5930    0.8480    0.0000 C   0  0  0  0  0  0  0  0  0  0  0  0
   -5.9820    0.2810    0.0000 C   0  0  0  0  0  0  0  0  0  0  0  0
   -7.1670    1.2010    0.0000 C   0  0  0  0  0  0  0  0  0  0  0  0
   -8.5560    0.6350    0.0000 N   0  0  0  0  0  0  0  0  0  0  0  0
   -9.7410    1.5550    0.0000 O   0  0  0  0  0  0  0  0  0  0  0  0
  -11.1300    0.9880    0.0000 C   0  0  0  0  0  0  0  0  0  0  0  0
  -12.5190    0.4220    0.0000 C   0  0  0  0  0  0  0  0  0  0  0  0
   -6.1860   -1.2050    0.0000 C   0  0  0  0  0  0  0  0  0  0  0  0
   -5.0010   -2.1240    0.0000 C   0  0  0  0  0  0  0  0  0  0  0  0
    7.7740   -2.3510    0.0000 H   0  0  0  0  0  0  0  0  0  0  0  0
   10.6870   -3.0670    0.0000 H   0  0  0  0  0  0  0  0  0  0  0  0
   11.9280    1.9790    0.0000 H   0  0  0  0  0  0  0  0  0  0  0  0
    9.0150    2.6950    0.0000 H   0  0  0  0  0  0  0  0  0  0  0  0
    6.1070    3.3960    0.0000 H   0  0  0  0  0  0  0  0  0  0  0  0
    7.8120    2.3380    0.0000 H   0  0  0  0  0  0  0  0  0  0  0  0
    3.3900    2.0140    0.0000 H   0  0  0  0  0  0  0  0  0  0  0  0
    4.9230    3.3090    0.0000 H   0  0  0  0  0  0  0  0  0  0  0  0
    2.5620    1.1760    0.0000 H   0  0  0  0  0  0  0  0  0  0  0  0
    3.6950   -1.6020    0.0000 H   0  0  0  0  0  0  0  0  0  0  0  0
    2.3060   -2.1680    0.0000 H   0  0  0  0  0  0  0  0  0  0  0  0
    1.1730    0.6100    0.0000 H   0  0  0  0  0  0  0  0  0  0  0  0
    0.9170   -2.7340    0.0000 H   0  0  0  0  0  0  0  0  0  0  0  0
   -0.2160    0.0440    0.0000 H   0  0  0  0  0  0  0  0  0  0  0  0
   -1.6050   -0.5230    0.0000 H   0  0  0  0  0  0  0  0  0  0  0  0
   -0.4720   -3.3010    0.0000 H   0  0  0  0  0  0  0  0  0  0  0  0
   -2.0190    0.4940    0.0000 H   0  0  0  0  0  0  0  0  0  0  0  0
   -4.3890    2.3340    0.0000 H   0  0  0  0  0  0  0  0  0  0  0  0
   -6.9630    2.6870    0.0000 H   0  0  0  0  0  0  0  0  0  0  0  0
  -11.6960    2.3770    0.0000 H   0  0  0  0  0  0  0  0  0  0  0  0
  -10.5640   -0.4010    0.0000 H   0  0  0  0  0  0  0  0  0  0  0  0
  -11.9530   -0.9670    0.0000 H   0  0  0  0  0  0  0  0  0  0  0  0
  -13.0850    1.8110    0.0000 H   0  0  0  0  0  0  0  0  0  0  0  0
  -13.9080   -0.1440    0.0000 H   0  0  0  0  0  0  0  0  0  0  0  0
   -7.5750   -1.7710    0.0000 H   0  0  0  0  0  0  0  0  0  0  0  0
   -5.2050   -3.6100    0.0000 H   0  0  0  0  0  0  0  0  0  0  0  0
  1  2  2  0  0  0  0
  2  3  1  0  0  0  0
  2 12  1  0  0  0  0
  3  4  1  0  0  0  0
  3 10  1  0  0  0  0
  4  5  2  0  0  0  0
  4  9  1  0  0  0  0
  5  6  1  0  0  0  0
  5 29  1  0  0  0  0
  6  7  2  0  0  0  0
  6 30  1  0  0  0  0
  7  8  1  0  0  0  0
  8  9  2  0  0  0  0
  8 31  1  0  0  0  0
  9 32  1  0  0  0  0
 10 11  1  0  0  0  0
 10 33  1  0  0  0  0
 10 34  1  0  0  0  0
 11 12  1  0  0  0  0
 11 35  1  0  0  0  0
 11 36  1  0  0  0  0
 12 13  1  0  0  0  0
 13 14  1  0  0  0  0
 13 37  1  0  0  0  0
 13 38  1  0  0  0  0
 14 15  1  0  0  0  0
 14 39  1  0  0  0  0
 14 40  1  0  0  0  0
 15 16  1  0  0  0  0
 15 41  1  0  0  0  0
 15 42  1  0  0  0  0
 16 17  1  0  0  0  0
 16 43  1  0  0  0  0
 16 44  1  0  0  0  0
 17 18  1  0  0  0  0
 18 19  2  0  0  0  0
 18 28  1  0  0  0  0
 19 20  1  0  0  0  0
 19 45  1  0  0  0  0
 20 21  2  0  0  0  0
 20 46  1  0  0  0  0
 21 22  1  0  0  0  0
 21 27  1  0  0  0  0
 22 23  2  0  0  0  0
 22 47  1  0  0  0  0
 23 24  1  0  0  0  0
 24 25  1  0  0  0  0
 25 26  1  0  0  0  0
 25 48  1  0  0  0  0
 25 49  1  0  0  0  0
 26 50  1  0  0  0  0
 26 51  1  0  0  0  0
 26 52  1  0  0  0  0
 27 28  2  0  0  0  0
 27 53  1  0  0  0  0
 28 54  1  0  0  0  0
M  END
$$$$
