2D_structures\o35_MMV1580797_2D.pdb
 OpenBabel02282409193D

 56 59  0  0  0  0  0  0  0  0999 V2000
    9.1740   -0.2030    0.0000 F   0  0  0  0  0  0  0  0  0  0  0  0
    7.7000    0.0720    0.0000 C   0  0  0  0  0  0  0  0  0  0  0  0
    7.2010    1.4870    0.0000 C   0  0  0  0  0  0  0  0  0  0  0  0
    5.7260    1.7620    0.0000 C   0  0  0  0  0  0  0  0  0  0  0  0
    4.7510    0.6220    0.0000 C   0  0  0  0  0  0  0  0  0  0  0  0
    3.2760    0.8970    0.0000 C   0  0  0  0  0  0  0  0  0  0  0  0
    2.1870   -0.1340    0.0000 C   0  0  0  0  0  0  0  0  0  0  0  0
    0.8690    0.5830    0.0000 N   0  0  0  0  0  0  0  0  0  0  0  0
   -0.4850   -0.0610    0.0000 C   0  0  0  0  0  0  0  0  0  0  0  0
   -1.8400   -0.7060    0.0000 C   0  0  0  0  0  0  0  0  0  0  0  0
   -3.1940   -1.3500    0.0000 C   0  0  0  0  0  0  0  0  0  0  0  0
   -4.5490   -1.9940    0.0000 C   0  0  0  0  0  0  0  0  0  0  0  0
   -5.7840   -1.1430    0.0000 C   0  0  0  0  0  0  0  0  0  0  0  0
   -7.1390   -1.7880    0.0000 C   0  0  0  0  0  0  0  0  0  0  0  0
   -7.2580   -3.2830    0.0000 C   0  0  0  0  0  0  0  0  0  0  0  0
   -6.0230   -4.1340    0.0000 C   0  0  0  0  0  0  0  0  0  0  0  0
   -4.6680   -3.4900    0.0000 C   0  0  0  0  0  0  0  0  0  0  0  0
    1.1440    2.0580    0.0000 C   0  0  0  0  0  0  0  0  0  0  0  0
    2.6320    2.2520    0.0000 N   0  0  0  0  0  0  0  0  0  0  0  0
    0.1130    3.1470    0.0000 C   0  0  0  0  0  0  0  0  0  0  0  0
   -0.9180    4.2360    0.0000 C   0  0  0  0  0  0  0  0  0  0  0  0
   -1.9500    5.3250    0.0000 C   0  0  0  0  0  0  0  0  0  0  0  0
   -2.9810    6.4140    0.0000 C   0  0  0  0  0  0  0  0  0  0  0  0
   -4.0130    7.5030    0.0000 O   0  0  0  0  0  0  0  0  0  0  0  0
    2.3810   -1.6220    0.0000 C   0  0  0  0  0  0  0  0  0  0  0  0
    3.7660   -2.1970    0.0000 C   0  0  0  0  0  0  0  0  0  0  0  0
    3.9600   -3.6840    0.0000 C   0  0  0  0  0  0  0  0  0  0  0  0
    2.7690   -4.5960    0.0000 N   0  0  0  0  0  0  0  0  0  0  0  0
    1.3840   -4.0210    0.0000 C   0  0  0  0  0  0  0  0  0  0  0  0
    1.1900   -2.5330    0.0000 C   0  0  0  0  0  0  0  0  0  0  0  0
    5.2500   -0.7920    0.0000 C   0  0  0  0  0  0  0  0  0  0  0  0
    6.7240   -1.0670    0.0000 C   0  0  0  0  0  0  0  0  0  0  0  0
    8.1760    2.6260    0.0000 H   0  0  0  0  0  0  0  0  0  0  0  0
    5.2270    3.1760    0.0000 H   0  0  0  0  0  0  0  0  0  0  0  0
   -0.1010   -1.2140    0.0000 H   0  0  0  0  0  0  0  0  0  0  0  0
   -1.1300    1.2930    0.0000 H   0  0  0  0  0  0  0  0  0  0  0  0
   -2.4840    0.6490    0.0000 H   0  0  0  0  0  0  0  0  0  0  0  0
   -1.1950   -2.0600    0.0000 H   0  0  0  0  0  0  0  0  0  0  0  0
   -2.5500   -2.7050    0.0000 H   0  0  0  0  0  0  0  0  0  0  0  0
   -3.8390    0.0050    0.0000 H   0  0  0  0  0  0  0  0  0  0  0  0
   -5.6650    0.3520    0.0000 H   0  0  0  0  0  0  0  0  0  0  0  0
   -8.3740   -0.9370    0.0000 H   0  0  0  0  0  0  0  0  0  0  0  0
   -8.6130   -3.9270    0.0000 H   0  0  0  0  0  0  0  0  0  0  0  0
   -6.1420   -5.6290    0.0000 H   0  0  0  0  0  0  0  0  0  0  0  0
   -3.4330   -4.3410    0.0000 H   0  0  0  0  0  0  0  0  0  0  0  0
   -0.8610    6.3560    0.0000 H   0  0  0  0  0  0  0  0  0  0  0  0
   -3.0390    4.2940    0.0000 H   0  0  0  0  0  0  0  0  0  0  0  0
   -4.0700    5.3830    0.0000 H   0  0  0  0  0  0  0  0  0  0  0  0
   -1.8920    7.4460    0.0000 H   0  0  0  0  0  0  0  0  0  0  0  0
   -3.5850    8.9410    0.0000 H   0  0  0  0  0  0  0  0  0  0  0  0
    4.4980   -1.8800    0.0000 H   0  0  0  0  0  0  0  0  0  0  0  0
    5.3460   -4.2600    0.0000 H   0  0  0  0  0  0  0  0  0  0  0  0
    0.1930   -4.9330    0.0000 H   0  0  0  0  0  0  0  0  0  0  0  0
    0.0200   -2.2080    0.0000 H   0  0  0  0  0  0  0  0  0  0  0  0
    4.8930   -1.5050    0.0000 H   0  0  0  0  0  0  0  0  0  0  0  0
    7.2240   -2.4820    0.0000 H   0  0  0  0  0  0  0  0  0  0  0  0
  1  2  1  0  0  0  0
  2  3  2  0  0  0  0
  2 32  1  0  0  0  0
  3  4  1  0  0  0  0
  3 33  1  0  0  0  0
  4  5  2  0  0  0  0
  4 34  1  0  0  0  0
  5  6  1  0  0  0  0
  5 31  1  0  0  0  0
  6  7  2  0  0  0  0
  6 19  1  0  0  0  0
  7  8  1  0  0  0  0
  7 25  1  0  0  0  0
  8  9  1  0  0  0  0
  8 18  1  0  0  0  0
  9 10  1  0  0  0  0
  9 35  1  0  0  0  0
  9 36  1  0  0  0  0
 10 11  1  0  0  0  0
 10 37  1  0  0  0  0
 10 38  1  0  0  0  0
 11 12  1  0  0  0  0
 11 39  1  0  0  0  0
 11 40  1  0  0  0  0
 12 13  2  0  0  0  0
 12 17  1  0  0  0  0
 13 14  1  0  0  0  0
 13 41  1  0  0  0  0
 14 15  2  0  0  0  0
 14 42  1  0  0  0  0
 15 16  1  0  0  0  0
 15 43  1  0  0  0  0
 16 17  2  0  0  0  0
 16 44  1  0  0  0  0
 17 45  1  0  0  0  0
 18 19  2  0  0  0  0
 18 20  1  0  0  0  0
 20 21  3  0  0  0  0
 21 22  1  0  0  0  0
 22 23  1  0  0  0  0
 22 46  1  0  0  0  0
 22 47  1  0  0  0  0
 23 24  1  0  0  0  0
 23 48  1  0  0  0  0
 23 49  1  0  0  0  0
 24 50  1  0  0  0  0
 25 26  2  0  0  0  0
 25 30  1  0  0  0  0
 26 27  1  0  0  0  0
 26 51  1  0  0  0  0
 27 28  2  0  0  0  0
 27 52  1  0  0  0  0
 28 29  1  0  0  0  0
 29 30  2  0  0  0  0
 29 53  1  0  0  0  0
 30 54  1  0  0  0  0
 31 32  2  0  0  0  0
 31 55  1  0  0  0  0
 32 56  1  0  0  0  0
M  END
$$$$
