2D_structures\o38_MMV056052_2D.pdb
 OpenBabel02282409193D

 28 29  0  0  0  0  0  0  0  0999 V2000
    0.9410   -2.1850    0.0000 S   0  0  0  0  0  0  0  0  0  0  0  0
    2.1640   -1.3180    0.0000 C   0  0  0  0  0  0  0  0  0  0  0  0
    1.7170    0.1140    0.0000 C   0  0  0  0  0  0  0  0  0  0  0  0
    2.6130    1.3180    0.0000 C   0  0  0  0  0  0  0  0  0  0  0  0
    2.0180    2.6950    0.0000 O   0  0  0  0  0  0  0  0  0  0  0  0
    4.1020    1.1440    0.0000 N   0  0  0  0  0  0  0  0  0  0  0  0
    0.2170    0.1310    0.0000 C   0  0  0  0  0  0  0  0  0  0  0  0
   -0.2630   -1.2900    0.0000 C   0  0  0  0  0  0  0  0  0  0  0  0
   -1.6730   -1.8010    0.0000 C   0  0  0  0  0  0  0  0  0  0  0  0
   -2.9520   -1.0170    0.0000 C   0  0  0  0  0  0  0  0  0  0  0  0
   -3.1360    0.4720    0.0000 C   0  0  0  0  0  0  0  0  0  0  0  0
   -2.0870    1.5440    0.0000 C   0  0  0  0  0  0  0  0  0  0  0  0
   -0.5950    1.3930    0.0000 C   0  0  0  0  0  0  0  0  0  0  0  0
    3.5850   -1.7970    0.0000 N   0  0  0  0  0  0  0  0  0  0  0  0
    4.9980    2.3470    0.0000 H   0  0  0  0  0  0  0  0  0  0  0  0
    4.7850   -0.0210    0.0000 H   0  0  0  0  0  0  0  0  0  0  0  0
   -0.8610   -3.0620    0.0000 H   0  0  0  0  0  0  0  0  0  0  0  0
   -2.5830   -2.9930    0.0000 H   0  0  0  0  0  0  0  0  0  0  0  0
   -3.6010   -2.3690    0.0000 H   0  0  0  0  0  0  0  0  0  0  0  0
   -4.4510   -1.0480    0.0000 H   0  0  0  0  0  0  0  0  0  0  0  0
   -4.5980    0.1370    0.0000 H   0  0  0  0  0  0  0  0  0  0  0  0
   -4.0960    1.6250    0.0000 H   0  0  0  0  0  0  0  0  0  0  0  0
   -3.2610    2.4780    0.0000 H   0  0  0  0  0  0  0  0  0  0  0  0
   -1.7840    3.0130    0.0000 H   0  0  0  0  0  0  0  0  0  0  0  0
   -0.5960    2.8930    0.0000 H   0  0  0  0  0  0  0  0  0  0  0  0
    0.8150    1.9040    0.0000 H   0  0  0  0  0  0  0  0  0  0  0  0
    3.8810   -3.2680    0.0000 H   0  0  0  0  0  0  0  0  0  0  0  0
    4.7000   -1.0360    0.0000 H   0  0  0  0  0  0  0  0  0  0  0  0
  1  2  1  0  0  0  0
  1  8  1  0  0  0  0
  2  3  2  0  0  0  0
  2 14  1  0  0  0  0
  3  4  1  0  0  0  0
  3  7  1  0  0  0  0
  4  5  2  0  0  0  0
  4  6  1  0  0  0  0
  6 15  1  0  0  0  0
  6 16  1  0  0  0  0
  7  8  2  0  0  0  0
  7 13  1  0  0  0  0
  8  9  1  0  0  0  0
  9 10  1  0  0  0  0
  9 17  1  0  0  0  0
  9 18  1  0  0  0  0
 10 11  1  0  0  0  0
 10 19  1  0  0  0  0
 10 20  1  0  0  0  0
 11 12  1  0  0  0  0
 11 21  1  0  0  0  0
 11 22  1  0  0  0  0
 12 13  1  0  0  0  0
 12 23  1  0  0  0  0
 12 24  1  0  0  0  0
 13 25  1  0  0  0  0
 13 26  1  0  0  0  0
 14 27  1  0  0  0  0
 14 28  1  0  0  0  0
M  END
$$$$
