2D_structures\o42_MMV690540_2D.pdb
 OpenBabel02282409193D

 23 24  0  0  0  0  0  0  0  0999 V2000
   -0.2370   -2.6780    0.0000 Br  0  0  0  0  0  0  0  0  0  0  0  0
   -1.0760   -1.4340    0.0000 C   0  0  0  0  0  0  0  0  0  0  0  0
   -2.5720   -1.5390    0.0000 C   0  0  0  0  0  0  0  0  0  0  0  0
   -3.2300   -2.8880    0.0000 O   0  0  0  0  0  0  0  0  0  0  0  0
   -3.4120   -0.2960    0.0000 N   0  0  0  0  0  4  0  0  0  0  0  0
   -2.7540    1.0520    0.0000 C   0  0  0  0  0  0  0  0  0  0  0  0
   -3.5940    2.2960    0.0000 N   0  0  0  0  0  0  0  0  0  0  0  0
   -1.2580    1.1570    0.0000 N   0  0  0  0  0  0  0  0  0  0  0  0
   -0.4190   -0.0860    0.0000 C   0  0  0  0  0  0  0  0  0  0  0  0
    1.0770    0.0190    0.0000 C   0  0  0  0  0  0  0  0  0  0  0  0
    1.9170   -1.2240    0.0000 C   0  0  0  0  0  0  0  0  0  0  0  0
    3.4130   -1.1190    0.0000 C   0  0  0  0  0  0  0  0  0  0  0  0
    4.0700    0.2290    0.0000 C   0  0  0  0  0  0  0  0  0  0  0  0
    3.2310    1.4720    0.0000 C   0  0  0  0  0  0  0  0  0  0  0  0
    1.7350    1.3670    0.0000 C   0  0  0  0  0  0  0  0  0  0  0  0
   -4.7260   -2.9930    0.0000 H   0  0  0  0  0  0  0  0  0  0  0  0
   -2.9360    3.6440    0.0000 H   0  0  0  0  0  0  0  0  0  0  0  0
   -5.0900    2.1900    0.0000 H   0  0  0  0  0  0  0  0  0  0  0  0
    1.2590   -2.5730    0.0000 H   0  0  0  0  0  0  0  0  0  0  0  0
    4.2520   -2.3630    0.0000 H   0  0  0  0  0  0  0  0  0  0  0  0
    5.5660    0.3340    0.0000 H   0  0  0  0  0  0  0  0  0  0  0  0
    3.8880    2.8210    0.0000 H   0  0  0  0  0  0  0  0  0  0  0  0
    0.8950    2.6110    0.0000 H   0  0  0  0  0  0  0  0  0  0  0  0
  1  2  1  0  0  0  0
  2  3  2  0  0  0  0
  2  9  1  0  0  0  0
  3  4  1  0  0  0  0
  3  5  2  0  0  0  0
  4 16  1  0  0  0  0
  5  6  2  0  0  0  0
  6  7  1  0  0  0  0
  6  8  1  0  0  0  0
  7 17  1  0  0  0  0
  7 18  1  0  0  0  0
  8  9  2  0  0  0  0
  9 10  1  0  0  0  0
 10 11  2  0  0  0  0
 10 15  1  0  0  0  0
 11 12  1  0  0  0  0
 11 19  1  0  0  0  0
 12 13  2  0  0  0  0
 12 20  1  0  0  0  0
 13 14  1  0  0  0  0
 13 21  1  0  0  0  0
 14 15  2  0  0  0  0
 14 22  1  0  0  0  0
 15 23  1  0  0  0  0
M  END
$$$$
