2D_structures\o43_MMV614278_2D.pdb
 OpenBabel02282409193D

 39 42  0  0  1  0  0  0  0  0999 V2000
   -2.9660   -3.2380    0.0000 Cl  0  0  0  0  0  0  0  0  0  0  0  0
   -3.8630   -2.0360    0.0000 C   0  0  0  0  0  0  0  0  0  0  0  0
   -3.2710   -0.6580    0.0000 C   0  0  0  0  0  0  0  0  0  0  0  0
   -4.1690    0.5440    0.0000 C   0  0  0  0  0  0  0  0  0  0  0  0
   -5.6590    0.3670    0.0000 C   0  0  0  0  0  0  0  0  0  0  0  0
   -6.2510   -1.0110    0.0000 C   0  0  0  0  0  0  0  0  0  0  0  0
   -5.3530   -2.2130    0.0000 C   0  0  0  0  0  0  0  0  0  0  0  0
   -4.0410    1.3310    0.0000 F   0  0  0  0  0  0  0  0  0  0  0  0
   -1.7820   -0.4810    0.0000 C   0  0  1  0  0  0  0  0  0  0  0  0
   -2.2140    0.9550    0.0000 N   0  0  0  0  0  0  0  0  0  0  0  0
   -3.5710    1.5950    0.0000 N   0  0  0  0  0  0  0  0  0  0  0  0
   -3.3820    3.0830    0.0000 C   0  0  0  0  0  0  0  0  0  0  0  0
   -1.9090    3.3630    0.0000 N   0  0  0  0  0  0  0  0  0  0  0  0
   -1.1870    2.0480    0.0000 C   0  0  0  0  0  0  0  0  0  0  0  0
    0.2730    1.7040    0.0000 N   0  0  0  0  0  0  0  0  0  0  0  0
    0.7060    0.2680    0.0000 C   0  0  0  0  0  0  0  0  0  0  0  0
   -0.3220   -0.8250    0.0000 C   0  0  0  0  0  0  0  0  0  0  0  0
    2.1660   -0.0750    0.0000 C   0  0  0  0  0  0  0  0  0  0  0  0
    2.5990   -1.5120    0.0000 C   0  0  0  0  0  0  0  0  0  0  0  0
    4.0590   -1.8550    0.0000 C   0  0  0  0  0  0  0  0  0  0  0  0
    5.0860   -0.7630    0.0000 C   0  0  0  0  0  0  0  0  0  0  0  0
    6.5460   -1.1060    0.0000 O   0  0  0  0  0  0  0  0  0  0  0  0
    7.5740   -0.0130    0.0000 C   0  0  0  0  0  0  0  0  0  0  0  0
    4.6540    0.6740    0.0000 C   0  0  0  0  0  0  0  0  0  0  0  0
    3.1940    1.0170    0.0000 C   0  0  0  0  0  0  0  0  0  0  0  0
   -6.5560    1.5690    0.0000 H   0  0  0  0  0  0  0  0  0  0  0  0
   -7.7400   -1.1870    0.0000 H   0  0  0  0  0  0  0  0  0  0  0  0
   -5.9450   -3.5910    0.0000 H   0  0  0  0  0  0  0  0  0  0  0  0
   -1.8670   -1.9790    0.0000 H   0  0  0  0  0  0  0  0  0  0  0  0
   -4.4750    4.1100    0.0000 H   0  0  0  0  0  0  0  0  0  0  0  0
    1.3010    2.7970    0.0000 H   0  0  0  0  0  0  0  0  0  0  0  0
    0.1110   -2.2610    0.0000 H   0  0  0  0  0  0  0  0  0  0  0  0
    1.5710   -2.6040    0.0000 H   0  0  0  0  0  0  0  0  0  0  0  0
    4.4910   -3.2920    0.0000 H   0  0  0  0  0  0  0  0  0  0  0  0
    8.6020    1.0790    0.0000 H   0  0  0  0  0  0  0  0  0  0  0  0
    8.6670   -1.0410    0.0000 H   0  0  0  0  0  0  0  0  0  0  0  0
    6.4810    1.0140    0.0000 H   0  0  0  0  0  0  0  0  0  0  0  0
    5.6810    1.7660    0.0000 H   0  0  0  0  0  0  0  0  0  0  0  0
    2.7610    2.4540    0.0000 H   0  0  0  0  0  0  0  0  0  0  0  0
  1  2  1  0  0  0  0
  2  3  2  0  0  0  0
  2  7  1  0  0  0  0
  3  4  1  0  0  0  0
  3  9  1  0  0  0  0
  4  5  2  0  0  0  0
  4  8  1  0  0  0  0
  5  6  1  0  0  0  0
  5 26  1  0  0  0  0
  6  7  2  0  0  0  0
  6 27  1  0  0  0  0
  7 28  1  0  0  0  0
  9 10  1  0  0  0  0
  9 17  1  0  0  0  0
  9 29  1  6  0  0  0
 10 11  1  0  0  0  0
 10 14  1  0  0  0  0
 11 12  2  0  0  0  0
 12 13  1  0  0  0  0
 12 30  1  0  0  0  0
 13 14  2  0  0  0  0
 14 15  1  0  0  0  0
 15 16  1  0  0  0  0
 15 31  1  0  0  0  0
 16 17  2  0  0  0  0
 16 18  1  0  0  0  0
 17 32  1  0  0  0  0
 18 19  2  0  0  0  0
 18 25  1  0  0  0  0
 19 20  1  0  0  0  0
 19 33  1  0  0  0  0
 20 21  2  0  0  0  0
 20 34  1  0  0  0  0
 21 22  1  0  0  0  0
 21 24  1  0  0  0  0
 22 23  1  0  0  0  0
 23 35  1  0  0  0  0
 23 36  1  0  0  0  0
 23 37  1  0  0  0  0
 24 25  2  0  0  0  0
 24 38  1  0  0  0  0
 25 39  1  0  0  0  0
M  END
$$$$
