2D_structures\o46_MMV1782115_2D.pdb
 OpenBabel02282409193D

 32 34  0  0  1  0  0  0  0  0999 V2000
    0.1040   -3.0190    0.0000 S   0  0  0  0  0  0  0  0  0  0  0  0
    1.1860   -1.9790    0.0000 C   0  0  0  0  0  0  0  0  0  0  0  0
    0.5310   -0.6290    0.0000 C   0  0  0  0  0  0  0  0  0  0  0  0
    1.1790    0.7240    0.0000 N   0  0  0  0  0  0  0  0  0  0  0  0
    2.6400    1.0610    0.0000 C   0  0  1  0  0  0  0  0  0  0  0  0
    1.9860    2.4110    0.0000 C   0  0  0  0  0  0  0  0  0  0  0  0
    3.8150    0.1290    0.0000 C   0  0  0  0  0  0  0  0  0  0  0  0
    3.8190   -1.3710    0.0000 N   0  0  0  0  0  0  0  0  0  0  0  0
    2.6490   -2.3090    0.0000 C   0  0  0  0  0  0  0  0  0  0  0  0
    2.9870   -3.7710    0.0000 O   0  0  0  0  0  0  0  0  0  0  0  0
   -0.9540   -0.8350    0.0000 C   0  0  0  0  0  0  0  0  0  0  0  0
   -1.2180   -2.3110    0.0000 C   0  0  0  0  0  0  0  0  0  0  0  0
   -2.6290   -2.8210    0.0000 C   0  0  0  0  0  0  0  0  0  0  0  0
   -3.7760   -1.8540    0.0000 C   0  0  0  0  0  0  0  0  0  0  0  0
   -3.5120   -0.3770    0.0000 C   0  0  0  0  0  0  0  0  0  0  0  0
   -2.1010    0.1320    0.0000 C   0  0  0  0  0  0  0  0  0  0  0  0
   -4.6590    0.5900    0.0000 O   0  0  0  0  0  0  0  0  0  0  0  0
   -4.3950    2.0660    0.0000 C   0  0  0  0  0  0  0  0  0  0  0  0
    0.6080    1.2800    0.0000 H   0  0  0  0  0  0  0  0  0  0  0  0
    3.6880    2.1350    0.0000 H   0  0  0  0  0  0  0  0  0  0  0  0
    1.3320    3.7610    0.0000 H   0  0  0  0  0  0  0  0  0  0  0  0
    1.1480    2.1250    0.0000 H   0  0  0  0  0  0  0  0  0  0  0  0
    3.3360    3.0650    0.0000 H   0  0  0  0  0  0  0  0  0  0  0  0
    4.6230    1.3930    0.0000 H   0  0  0  0  0  0  0  0  0  0  0  0
    5.2790   -0.2010    0.0000 H   0  0  0  0  0  0  0  0  0  0  0  0
    5.1720   -2.0180    0.0000 H   0  0  0  0  0  0  0  0  0  0  0  0
   -2.8930   -4.2970    0.0000 H   0  0  0  0  0  0  0  0  0  0  0  0
   -5.1870   -2.3640    0.0000 H   0  0  0  0  0  0  0  0  0  0  0  0
   -1.8370    1.6090    0.0000 H   0  0  0  0  0  0  0  0  0  0  0  0
   -4.1310    3.5430    0.0000 H   0  0  0  0  0  0  0  0  0  0  0  0
   -5.8710    2.3300    0.0000 H   0  0  0  0  0  0  0  0  0  0  0  0
   -2.9180    1.8020    0.0000 H   0  0  0  0  0  0  0  0  0  0  0  0
  1  2  1  0  0  0  0
  1 12  1  0  0  0  0
  2  3  2  0  0  0  0
  2  9  1  0  0  0  0
  3  4  1  0  0  0  0
  3 11  1  0  0  0  0
  4  5  1  0  0  0  0
  4 19  1  0  0  0  0
  5  6  1  0  0  0  0
  5  7  1  0  0  0  0
  5 20  1  6  0  0  0
  6 21  1  0  0  0  0
  6 22  1  0  0  0  0
  6 23  1  0  0  0  0
  7  8  1  0  0  0  0
  7 24  1  0  0  0  0
  7 25  1  0  0  0  0
  8  9  1  0  0  0  0
  8 26  1  0  0  0  0
  9 10  2  0  0  0  0
 11 12  2  0  0  0  0
 11 16  1  0  0  0  0
 12 13  1  0  0  0  0
 13 14  2  0  0  0  0
 13 27  1  0  0  0  0
 14 15  1  0  0  0  0
 14 28  1  0  0  0  0
 15 16  2  0  0  0  0
 15 17  1  0  0  0  0
 16 29  1  0  0  0  0
 17 18  1  0  0  0  0
 18 30  1  0  0  0  0
 18 31  1  0  0  0  0
 18 32  1  0  0  0  0
M  END
$$$$
