2D_structures\o50_MMV1634401_2D.pdb
 OpenBabel02282409193D

 59 60  0  0  1  0  0  0  0  0999 V2000
    5.7660   -1.7310    0.0000 O   0  0  0  0  0  0  0  0  0  0  0  0
    6.7570   -0.6050    0.0000 C   0  0  0  0  0  0  0  0  0  0  0  0
    8.2280   -0.9010    0.0000 C   0  0  0  0  0  0  0  0  0  0  0  0
    9.2190    0.2250    0.0000 C   0  0  0  0  0  0  0  0  0  0  0  0
    8.7400    1.6460    0.0000 C   0  0  0  0  0  0  0  0  0  0  0  0
    7.2690    1.9420    0.0000 C   0  0  0  0  0  0  0  0  0  0  0  0
    6.2780    0.8160    0.0000 C   0  0  0  0  0  0  0  0  0  0  0  0
    6.7900    3.3630    0.0000 C   0  0  0  0  0  0  0  0  0  0  0  0
    8.7070   -2.3220    0.0000 C   0  0  0  0  0  0  0  0  0  0  0  0
    4.2950   -1.4360    0.0000 C   0  0  0  0  0  0  0  0  0  0  0  0
    2.8250   -1.1400    0.0000 C   0  0  0  0  0  0  0  0  0  0  0  0
    1.3540   -0.8450    0.0000 C   0  0  0  0  0  0  0  0  0  0  0  0
   -0.1160   -0.5490    0.0000 C   0  0  0  0  0  0  0  0  0  0  0  0
   -1.5870   -0.2530    0.0000 C   0  0  0  0  0  0  0  0  0  0  0  0
   -3.0580    0.0420    0.0000 C   0  0  0  0  0  0  0  0  0  0  0  0
   -4.5280    0.3380    0.0000 N   0  0  0  0  0  0  0  0  0  0  0  0
   -5.5190   -0.7880    0.0000 C   0  0  1  0  0  0  0  0  0  0  0  0
   -6.9900   -0.4930    0.0000 C   0  0  1  0  0  0  0  0  0  0  0  0
   -8.4730   -0.7180    0.0000 O   0  0  0  0  0  0  0  0  0  0  0  0
   -7.4690    0.9290    0.0000 C   0  0  1  0  0  0  0  0  0  0  0  0
   -8.4060    2.1010    0.0000 O   0  0  0  0  0  0  0  0  0  0  0  0
   -6.4780    2.0550    0.0000 C   0  0  1  0  0  0  0  0  0  0  0  0
   -5.0080    1.7590    0.0000 C   0  0  0  0  0  0  0  0  0  0  0  0
   -5.9320    3.4520    0.0000 O   0  0  0  0  0  0  0  0  0  0  0  0
   -6.0660   -2.1850    0.0000 C   0  0  0  0  0  0  0  0  0  0  0  0
   -6.6120   -3.5820    0.0000 O   0  0  0  0  0  0  0  0  0  0  0  0
   10.6900   -0.0710    0.0000 H   0  0  0  0  0  0  0  0  0  0  0  0
    9.7310    2.7720    0.0000 H   0  0  0  0  0  0  0  0  0  0  0  0
    4.8070    1.1120    0.0000 H   0  0  0  0  0  0  0  0  0  0  0  0
    6.3100    4.7840    0.0000 H   0  0  0  0  0  0  0  0  0  0  0  0
    5.3680    2.8840    0.0000 H   0  0  0  0  0  0  0  0  0  0  0  0
    8.2110    3.8420    0.0000 H   0  0  0  0  0  0  0  0  0  0  0  0
    9.1860   -3.7440    0.0000 H   0  0  0  0  0  0  0  0  0  0  0  0
   10.1280   -1.8430    0.0000 H   0  0  0  0  0  0  0  0  0  0  0  0
    7.2860   -2.8020    0.0000 H   0  0  0  0  0  0  0  0  0  0  0  0
    4.5910    0.0350    0.0000 H   0  0  0  0  0  0  0  0  0  0  0  0
    4.0000   -2.9060    0.0000 H   0  0  0  0  0  0  0  0  0  0  0  0
    3.1200    0.3310    0.0000 H   0  0  0  0  0  0  0  0  0  0  0  0
    2.5290   -2.6110    0.0000 H   0  0  0  0  0  0  0  0  0  0  0  0
    1.0590   -2.3150    0.0000 H   0  0  0  0  0  0  0  0  0  0  0  0
    1.6500    0.6260    0.0000 H   0  0  0  0  0  0  0  0  0  0  0  0
    0.1790    0.9220    0.0000 H   0  0  0  0  0  0  0  0  0  0  0  0
   -0.4120   -2.0200    0.0000 H   0  0  0  0  0  0  0  0  0  0  0  0
   -1.8830   -1.7240    0.0000 H   0  0  0  0  0  0  0  0  0  0  0  0
   -1.2910    1.2170    0.0000 H   0  0  0  0  0  0  0  0  0  0  0  0
   -2.5850    1.4660    0.0000 H   0  0  0  0  0  0  0  0  0  0  0  0
   -3.1720   -1.4530    0.0000 H   0  0  0  0  0  0  0  0  0  0  0  0
   -4.3430   -1.7190    0.0000 H   0  0  0  0  0  0  0  0  0  0  0  0
   -7.1060   -1.2810    0.0000 H   0  0  0  0  0  0  0  0  0  0  0  0
   -9.0190   -2.1150    0.0000 H   0  0  0  0  0  0  0  0  0  0  0  0
   -8.7860    0.2100    0.0000 H   0  0  0  0  0  0  0  0  0  0  0  0
   -9.8890    1.8750    0.0000 H   0  0  0  0  0  0  0  0  0  0  0  0
   -7.7590    2.8350    0.0000 H   0  0  0  0  0  0  0  0  0  0  0  0
   -3.5630    2.1630    0.0000 H   0  0  0  0  0  0  0  0  0  0  0  0
   -4.9720    3.2590    0.0000 H   0  0  0  0  0  0  0  0  0  0  0  0
   -6.8680    4.6230    0.0000 H   0  0  0  0  0  0  0  0  0  0  0  0
   -4.6690   -2.7310    0.0000 H   0  0  0  0  0  0  0  0  0  0  0  0
   -6.8380   -1.9870    0.0000 H   0  0  0  0  0  0  0  0  0  0  0  0
   -5.6760   -4.7540    0.0000 H   0  0  0  0  0  0  0  0  0  0  0  0
  1  2  1  0  0  0  0
  1 10  1  0  0  0  0
  2  3  2  0  0  0  0
  2  7  1  0  0  0  0
  3  4  1  0  0  0  0
  3  9  1  0  0  0  0
  4  5  2  0  0  0  0
  4 27  1  0  0  0  0
  5  6  1  0  0  0  0
  5 28  1  0  0  0  0
  6  7  2  0  0  0  0
  6  8  1  0  0  0  0
  7 29  1  0  0  0  0
  8 30  1  0  0  0  0
  8 31  1  0  0  0  0
  8 32  1  0  0  0  0
  9 33  1  0  0  0  0
  9 34  1  0  0  0  0
  9 35  1  0  0  0  0
 10 11  1  0  0  0  0
 10 36  1  0  0  0  0
 10 37  1  0  0  0  0
 11 12  1  0  0  0  0
 11 38  1  0  0  0  0
 11 39  1  0  0  0  0
 12 13  1  0  0  0  0
 12 40  1  0  0  0  0
 12 41  1  0  0  0  0
 13 14  1  0  0  0  0
 13 42  1  0  0  0  0
 13 43  1  0  0  0  0
 14 15  1  0  0  0  0
 14 44  1  0  0  0  0
 14 45  1  0  0  0  0
 15 16  1  0  0  0  0
 15 46  1  0  0  0  0
 15 47  1  0  0  0  0
 16 17  1  0  0  0  0
 16 23  1  0  0  0  0
 17 18  1  0  0  0  0
 17 25  1  0  0  0  0
 17 48  1  1  0  0  0
 18 19  1  0  0  0  0
 18 20  1  0  0  0  0
 18 49  1  6  0  0  0
 19 50  1  0  0  0  0
 20 21  1  0  0  0  0
 20 22  1  0  0  0  0
 20 51  1  6  0  0  0
 21 52  1  0  0  0  0
 22 23  1  0  0  0  0
 22 24  1  0  0  0  0
 22 53  1  1  0  0  0
 23 54  1  0  0  0  0
 23 55  1  0  0  0  0
 24 56  1  0  0  0  0
 25 26  1  0  0  0  0
 25 57  1  0  0  0  0
 25 58  1  0  0  0  0
 26 59  1  0  0  0  0
M  END
$$$$
