2D_structures\o56_MMV637306_2D.pdb
 OpenBabel02282409193D

 29 31  0  0  1  0  0  0  0  0999 V2000
   -1.9310   -0.9170    0.0000 O   0  0  0  0  0  0  0  0  0  0  0  0
   -0.6750   -0.0970    0.0000 C   0  0  1  0  0  0  0  0  0  0  0  0
    0.7240    0.4440    0.0000 N   0  0  0  0  0  0  0  0  0  0  0  0
    1.9840   -0.3690    0.0000 C   0  0  0  0  0  0  0  0  0  0  0  0
    2.2220   -1.8500    0.0000 N   0  0  0  0  0  4  0  0  0  0  0  0
    3.6240   -2.3840    0.0000 C   0  0  0  0  0  0  0  0  0  0  0  0
    4.7870   -1.4370    0.0000 N   0  0  0  0  0  0  0  0  0  0  0  0
    4.5490    0.0440    0.0000 C   0  0  0  0  0  0  0  0  0  0  0  0
    3.1470    0.5780    0.0000 C   0  0  0  0  0  0  0  0  0  0  0  0
    2.6060    1.9770    0.0000 N   0  0  0  0  0  0  0  0  0  0  0  0
    1.1080    1.8940    0.0000 C   0  0  0  0  0  0  0  0  0  0  0  0
    5.7120    0.9910    0.0000 O   0  0  0  0  0  0  0  0  0  0  0  0
   -1.0670    1.3510    0.0000 C   0  0  0  0  0  0  0  0  0  0  0  0
   -2.5660    1.4250    0.0000 C   0  0  0  0  0  0  0  0  0  0  0  0
   -3.0990    0.0230    0.0000 C   0  0  1  0  0  0  0  0  0  0  0  0
   -3.9130   -1.2370    0.0000 C   0  0  0  0  0  0  0  0  0  0  0  0
   -4.7260   -2.4970    0.0000 O   0  0  0  0  0  0  0  0  0  0  0  0
    0.0090   -1.4320    0.0000 H   0  0  0  0  0  0  0  0  0  0  0  0
    3.8630   -3.8650    0.0000 H   0  0  0  0  0  0  0  0  0  0  0  0
    0.1610    3.0570    0.0000 H   0  0  0  0  0  0  0  0  0  0  0  0
    7.1140    0.4570    0.0000 H   0  0  0  0  0  0  0  0  0  0  0  0
   -1.1500    2.8480    0.0000 H   0  0  0  0  0  0  0  0  0  0  0  0
    0.1740    1.8820    0.0000 H   0  0  0  0  0  0  0  0  0  0  0  0
   -4.0160    1.8100    0.0000 H   0  0  0  0  0  0  0  0  0  0  0  0
   -2.3350    2.9070    0.0000 H   0  0  0  0  0  0  0  0  0  0  0  0
   -4.4380    0.7010    0.0000 H   0  0  0  0  0  0  0  0  0  0  0  0
   -5.1730   -0.4230    0.0000 H   0  0  0  0  0  0  0  0  0  0  0  0
   -2.6530   -2.0500    0.0000 H   0  0  0  0  0  0  0  0  0  0  0  0
   -4.0420   -3.8320    0.0000 H   0  0  0  0  0  0  0  0  0  0  0  0
  1  2  1  0  0  0  0
  1 15  1  0  0  0  0
  2  3  1  0  0  0  0
  2 13  1  0  0  0  0
  2 18  1  1  0  0  0
  3  4  1  0  0  0  0
  3 11  1  0  0  0  0
  4  5  2  0  0  0  0
  4  9  1  0  0  0  0
  5  6  2  0  0  0  0
  6  7  1  0  0  0  0
  6 19  1  0  0  0  0
  7  8  2  0  0  0  0
  8  9  2  0  0  0  0
  8 12  1  0  0  0  0
  9 10  1  0  0  0  0
 10 11  2  0  0  0  0
 11 20  1  0  0  0  0
 12 21  1  0  0  0  0
 13 14  1  0  0  0  0
 13 22  1  0  0  0  0
 13 23  1  0  0  0  0
 14 15  1  0  0  0  0
 14 24  1  0  0  0  0
 14 25  1  0  0  0  0
 15 16  1  0  0  0  0
 15 26  1  1  0  0  0
 16 17  1  0  0  0  0
 16 27  1  0  0  0  0
 16 28  1  0  0  0  0
 17 29  1  0  0  0  0
M  END
$$$$
