2D_structures\o57_MMV1581377_2D.pdb
 OpenBabel02282409193D

 51 54  0  0  1  0  0  0  0  0999 V2000
    8.0390   -0.5830    0.0000 F   0  0  0  0  0  0  0  0  0  0  0  0
    6.6430   -0.0340    0.0000 C   0  0  0  0  0  0  0  0  0  0  0  0
    5.4700   -0.9690    0.0000 C   0  0  0  0  0  0  0  0  0  0  0  0
    4.0740   -0.4200    0.0000 C   0  0  0  0  0  0  0  0  0  0  0  0
    3.8510    1.0630    0.0000 C   0  0  0  0  0  0  0  0  0  0  0  0
    2.4550    1.6110    0.0000 N   0  0  0  0  0  0  0  0  0  0  0  0
    1.8560    2.9860    0.0000 C   0  0  0  0  0  0  0  0  0  0  0  0
    2.4040    4.3830    0.0000 O   0  0  0  0  0  0  0  0  0  0  0  0
    0.4810    2.3870    0.0000 C   0  0  1  0  0  0  0  0  0  0  0  0
   -0.8940    1.7880    0.0000 C   0  0  0  0  0  0  0  0  0  0  0  0
   -2.2700    1.1890    0.0000 C   0  0  0  0  0  0  0  0  0  0  0  0
   -3.6450    0.5890    0.0000 C   0  0  1  0  0  0  0  0  0  0  0  0
   -4.2440    1.9640    0.0000 O   0  0  0  0  0  0  0  0  0  0  0  0
   -5.0200   -0.0100    0.0000 C   0  0  0  0  0  0  0  0  0  0  0  0
   -5.1880   -1.5010    0.0000 C   0  0  0  0  0  0  0  0  0  0  0  0
   -6.5630   -2.1000    0.0000 C   0  0  0  0  0  0  0  0  0  0  0  0
   -7.7700   -1.2090    0.0000 C   0  0  0  0  0  0  0  0  0  0  0  0
   -9.1450   -1.8080    0.0000 F   0  0  0  0  0  0  0  0  0  0  0  0
   -7.6010    0.2820    0.0000 C   0  0  0  0  0  0  0  0  0  0  0  0
   -6.2260    0.8810    0.0000 C   0  0  0  0  0  0  0  0  0  0  0  0
    1.0800    1.0120    0.0000 C   0  0  1  0  0  0  0  0  0  0  0  0
    1.6790   -0.3630    0.0000 C   0  0  0  0  0  0  0  0  0  0  0  0
    0.7880   -1.5700    0.0000 C   0  0  0  0  0  0  0  0  0  0  0  0
    1.3870   -2.9450    0.0000 C   0  0  0  0  0  0  0  0  0  0  0  0
    2.8780   -3.1130    0.0000 C   0  0  0  0  0  0  0  0  0  0  0  0
    3.4770   -4.4880    0.0000 O   0  0  0  0  0  0  0  0  0  0  0  0
    3.7690   -1.9070    0.0000 C   0  0  0  0  0  0  0  0  0  0  0  0
    3.1700   -0.5310    0.0000 C   0  0  0  0  0  0  0  0  0  0  0  0
    5.0240    1.9980    0.0000 C   0  0  0  0  0  0  0  0  0  0  0  0
    6.4200    1.4490    0.0000 C   0  0  0  0  0  0  0  0  0  0  0  0
    5.7630   -2.0220    0.0000 H   0  0  0  0  0  0  0  0  0  0  0  0
    2.9010   -1.3550    0.0000 H   0  0  0  0  0  0  0  0  0  0  0  0
   -0.1190    3.7620    0.0000 H   0  0  0  0  0  0  0  0  0  0  0  0
   -1.4940    3.1630    0.0000 H   0  0  0  0  0  0  0  0  0  0  0  0
   -0.6420    0.9390    0.0000 H   0  0  0  0  0  0  0  0  0  0  0  0
   -2.6970    2.6260    0.0000 H   0  0  0  0  0  0  0  0  0  0  0  0
   -1.6700   -0.1870    0.0000 H   0  0  0  0  0  0  0  0  0  0  0  0
   -3.0450   -0.7860    0.0000 H   0  0  0  0  0  0  0  0  0  0  0  0
   -3.5060    3.2700    0.0000 H   0  0  0  0  0  0  0  0  0  0  0  0
   -3.9820   -2.3920    0.0000 H   0  0  0  0  0  0  0  0  0  0  0  0
   -6.7320   -3.5900    0.0000 H   0  0  0  0  0  0  0  0  0  0  0  0
   -8.8080    1.1730    0.0000 H   0  0  0  0  0  0  0  0  0  0  0  0
   -6.0580    2.3720    0.0000 H   0  0  0  0  0  0  0  0  0  0  0  0
    0.3170    0.5620    0.0000 H   0  0  0  0  0  0  0  0  0  0  0  0
   -0.7020   -1.4010    0.0000 H   0  0  0  0  0  0  0  0  0  0  0  0
    0.4960   -4.1510    0.0000 H   0  0  0  0  0  0  0  0  0  0  0  0
    2.5860   -5.6950    0.0000 H   0  0  0  0  0  0  0  0  0  0  0  0
    4.8330   -2.1610    0.0000 H   0  0  0  0  0  0  0  0  0  0  0  0
    3.7840   -0.0240    0.0000 H   0  0  0  0  0  0  0  0  0  0  0  0
    4.8010    3.4810    0.0000 H   0  0  0  0  0  0  0  0  0  0  0  0
    7.5930    2.3840    0.0000 H   0  0  0  0  0  0  0  0  0  0  0  0
  1  2  1  0  0  0  0
  2  3  2  0  0  0  0
  2 30  1  0  0  0  0
  3  4  1  0  0  0  0
  3 31  1  0  0  0  0
  4  5  2  0  0  0  0
  4 32  1  0  0  0  0
  5  6  1  0  0  0  0
  5 29  1  0  0  0  0
  6  7  1  0  0  0  0
  6 21  1  0  0  0  0
  7  8  2  0  0  0  0
  7  9  1  0  0  0  0
  9 10  1  0  0  0  0
  9 21  1  0  0  0  0
  9 33  1  1  0  0  0
 10 11  1  0  0  0  0
 10 34  1  0  0  0  0
 10 35  1  0  0  0  0
 11 12  1  0  0  0  0
 11 36  1  0  0  0  0
 11 37  1  0  0  0  0
 12 13  1  0  0  0  0
 12 14  1  0  0  0  0
 12 38  1  1  0  0  0
 13 39  1  0  0  0  0
 14 15  2  0  0  0  0
 14 20  1  0  0  0  0
 15 16  1  0  0  0  0
 15 40  1  0  0  0  0
 16 17  2  0  0  0  0
 16 41  1  0  0  0  0
 17 18  1  0  0  0  0
 17 19  1  0  0  0  0
 19 20  2  0  0  0  0
 19 42  1  0  0  0  0
 20 43  1  0  0  0  0
 21 22  1  0  0  0  0
 21 44  1  1  0  0  0
 22 23  2  0  0  0  0
 22 28  1  0  0  0  0
 23 24  1  0  0  0  0
 23 45  1  0  0  0  0
 24 25  2  0  0  0  0
 24 46  1  0  0  0  0
 25 26  1  0  0  0  0
 25 27  1  0  0  0  0
 26 47  1  0  0  0  0
 27 28  2  0  0  0  0
 27 48  1  0  0  0  0
 28 49  1  0  0  0  0
 29 30  2  0  0  0  0
 29 50  1  0  0  0  0
 30 51  1  0  0  0  0
M  END
$$$$
