2D_structures\o59_MMV1580801_2D.pdb
 OpenBabel02282409193D

 36 38  0  0  0  0  0  0  0  0999 V2000
    4.5380    3.0170    0.0000 Cl  0  0  0  0  0  0  0  0  0  0  0  0
    3.9250    1.6480    0.0000 C   0  0  0  0  0  0  0  0  0  0  0  0
    2.4330    1.4940    0.0000 C   0  0  0  0  0  0  0  0  0  0  0  0
    1.8190    0.1250    0.0000 C   0  0  0  0  0  0  0  0  0  0  0  0
    0.3270   -0.0280    0.0000 C   0  0  0  0  0  0  0  0  0  0  0  0
   -0.5520    1.1880    0.0000 C   0  0  0  0  0  0  0  0  0  0  0  0
    0.0620    2.5560    0.0000 C   0  0  0  0  0  0  0  0  0  0  0  0
   -0.8170    3.7720    0.0000 C   0  0  0  0  0  0  0  0  0  0  0  0
   -2.3090    3.6190    0.0000 C   0  0  0  0  0  0  0  0  0  0  0  0
   -2.9230    2.2500    0.0000 C   0  0  0  0  0  0  0  0  0  0  0  0
   -2.0440    1.0340    0.0000 C   0  0  0  0  0  0  0  0  0  0  0  0
   -0.2860   -1.3970    0.0000 C   0  0  0  0  0  0  0  0  0  0  0  0
    0.5930   -2.6120    0.0000 C   0  0  0  0  0  0  0  0  0  0  0  0
   -0.0210   -3.9810    0.0000 C   0  0  0  0  0  0  0  0  0  0  0  0
    2.0850   -2.4590    0.0000 N   0  0  0  0  0  0  0  0  0  0  0  0
    2.6980   -1.0900    0.0000 C   0  0  0  0  0  0  0  0  0  0  0  0
    4.1900   -0.9370    0.0000 C   0  0  0  0  0  0  0  0  0  0  0  0
    4.8040    0.4320    0.0000 C   0  0  0  0  0  0  0  0  0  0  0  0
   -1.7780   -1.5500    0.0000 C   0  0  0  0  0  0  0  0  0  0  0  0
   -3.2700   -1.7040    0.0000 C   0  0  0  0  0  0  0  0  0  0  0  0
   -3.8840   -3.0720    0.0000 O   0  0  0  0  0  0  0  0  0  0  0  0
   -4.1490   -0.4880    0.0000 O   0  0  0  0  0  0  0  0  0  0  0  0
    1.9570    2.3560    0.0000 H   0  0  0  0  0  0  0  0  0  0  0  0
    1.0210    2.7760    0.0000 H   0  0  0  0  0  0  0  0  0  0  0  0
   -0.2040    5.1410    0.0000 H   0  0  0  0  0  0  0  0  0  0  0  0
   -3.1880    4.8340    0.0000 H   0  0  0  0  0  0  0  0  0  0  0  0
   -4.4150    2.0960    0.0000 H   0  0  0  0  0  0  0  0  0  0  0  0
   -2.3050    0.1880    0.0000 H   0  0  0  0  0  0  0  0  0  0  0  0
   -0.6340   -5.3500    0.0000 H   0  0  0  0  0  0  0  0  0  0  0  0
    1.3480   -4.5950    0.0000 H   0  0  0  0  0  0  0  0  0  0  0  0
   -1.1820   -3.6230    0.0000 H   0  0  0  0  0  0  0  0  0  0  0  0
    5.0690   -2.1520    0.0000 H   0  0  0  0  0  0  0  0  0  0  0  0
    6.2960    0.5850    0.0000 H   0  0  0  0  0  0  0  0  0  0  0  0
   -1.8020   -2.7650    0.0000 H   0  0  0  0  0  0  0  0  0  0  0  0
   -1.7610   -0.6650    0.0000 H   0  0  0  0  0  0  0  0  0  0  0  0
   -5.6410   -0.6410    0.0000 H   0  0  0  0  0  0  0  0  0  0  0  0
  1  2  1  0  0  0  0
  2  3  2  0  0  0  0
  2 18  1  0  0  0  0
  3  4  1  0  0  0  0
  3 23  1  0  0  0  0
  4  5  2  0  0  0  0
  4 16  1  0  0  0  0
  5  6  1  0  0  0  0
  5 12  1  0  0  0  0
  6  7  2  0  0  0  0
  6 11  1  0  0  0  0
  7  8  1  0  0  0  0
  7 24  1  0  0  0  0
  8  9  2  0  0  0  0
  8 25  1  0  0  0  0
  9 10  1  0  0  0  0
  9 26  1  0  0  0  0
 10 11  2  0  0  0  0
 10 27  1  0  0  0  0
 11 28  1  0  0  0  0
 12 13  2  0  0  0  0
 12 19  1  0  0  0  0
 13 14  1  0  0  0  0
 13 15  1  0  0  0  0
 14 29  1  0  0  0  0
 14 30  1  0  0  0  0
 14 31  1  0  0  0  0
 15 16  2  0  0  0  0
 16 17  1  0  0  0  0
 17 18  2  0  0  0  0
 17 32  1  0  0  0  0
 18 33  1  0  0  0  0
 19 20  1  0  0  0  0
 19 34  1  0  0  0  0
 19 35  1  0  0  0  0
 20 21  2  0  0  0  0
 20 22  1  0  0  0  0
 22 36  1  0  0  0  0
M  END
$$$$
