2D_structures\o61_MMV637879_2D.pdb
 OpenBabel02282409193D

 99103  0  0  1  0  0  0  0  0999 V2000
   -4.5450    2.6790    0.0000 O   0  0  0  0  0  0  0  0  0  0  0  0
   -4.8700    1.2150    0.0000 C   0  0  0  0  0  0  0  0  0  0  0  0
   -3.7640    0.2010    0.0000 N   0  0  0  0  0  0  0  0  0  0  0  0
   -2.3330    0.6530    0.0000 C   0  0  1  0  0  0  0  0  0  0  0  0
   -1.8820   -0.7780    0.0000 C   0  0  0  0  0  0  0  0  0  0  0  0
   -2.8950   -1.8840    0.0000 O   0  0  0  0  0  0  0  0  0  0  0  0
   -0.4170   -1.1020    0.0000 N   0  0  0  0  0  0  0  0  0  0  0  0
    0.0340   -2.5330    0.0000 C   0  0  1  0  0  0  0  0  0  0  0  0
    1.4640   -2.0820    0.0000 C   0  0  1  0  0  0  0  0  0  0  0  0
    1.9160   -3.5120    0.0000 O   0  0  0  0  0  0  0  0  0  0  0  0
    2.8950   -1.6310    0.0000 C   0  0  0  0  0  0  0  0  0  0  0  0
    4.3250   -1.1790    0.0000 N   0  0  0  0  0  0  0  0  0  0  0  0
    4.6500    0.2850    0.0000 C   0  0  1  0  0  0  0  0  0  0  0  0
    4.4540    1.7720    0.0000 C   0  0  0  0  0  0  0  0  0  0  0  0
    5.0230    2.3310    0.0000 O   0  0  0  0  0  0  0  0  0  0  0  0
    3.0680    2.3460    0.0000 N   0  0  0  0  0  0  0  0  0  0  0  0
    2.8720    3.8330    0.0000 C   0  0  0  0  0  0  0  0  0  0  0  0
    1.3850    3.6370    0.0000 C   0  0  0  0  0  0  0  0  0  0  0  0
    4.3590    4.0290    0.0000 C   0  0  0  0  0  0  0  0  0  0  0  0
    2.6760    5.3200    0.0000 C   0  0  0  0  0  0  0  0  0  0  0  0
    6.0810    0.7360    0.0000 C   0  0  0  0  0  0  0  0  0  0  0  0
    7.1870   -0.2770    0.0000 C   0  0  1  0  0  0  0  0  0  0  0  0
    8.6170    0.1740    0.0000 C   0  0  0  0  0  0  0  0  0  0  0  0
    9.7230   -0.8390    0.0000 C   0  0  0  0  0  0  0  0  0  0  0  0
    9.3990   -2.3040    0.0000 C   0  0  0  0  0  0  0  0  0  0  0  0
    7.9680   -2.7550    0.0000 C   0  0  0  0  0  0  0  0  0  0  0  0
    6.8620   -1.7410    0.0000 C   0  0  1  0  0  0  0  0  0  0  0  0
    5.4320   -2.1930    0.0000 C   0  0  0  0  0  0  0  0  0  0  0  0
   -1.3970   -2.9840    0.0000 C   0  0  0  0  0  0  0  0  0  0  0  0
   -2.8270   -3.4350    0.0000 C   0  0  0  0  0  0  0  0  0  0  0  0
   -3.9330   -2.4220    0.0000 C   0  0  0  0  0  0  0  0  0  0  0  0
   -5.3640   -2.8730    0.0000 C   0  0  0  0  0  0  0  0  0  0  0  0
   -5.6880   -4.3380    0.0000 C   0  0  0  0  0  0  0  0  0  0  0  0
   -4.5820   -5.3510    0.0000 C   0  0  0  0  0  0  0  0  0  0  0  0
   -3.1520   -4.9000    0.0000 C   0  0  0  0  0  0  0  0  0  0  0  0
   -2.7840    2.0830    0.0000 C   0  0  0  0  0  0  0  0  0  0  0  0
   -3.2350    3.5140    0.0000 C   0  0  0  0  0  0  0  0  0  0  0  0
   -4.7000    3.8380    0.0000 O   0  0  0  0  0  0  0  0  0  0  0  0
   -2.2220    4.6200    0.0000 N   0  0  0  0  0  0  0  0  0  0  0  0
   -6.3000    0.7630    0.0000 C   0  0  0  0  0  0  0  0  0  0  0  0
   -7.4060    1.7770    0.0000 N   0  0  0  0  0  0  0  0  0  0  0  0
   -8.8370    1.3260    0.0000 C   0  0  0  0  0  0  0  0  0  0  0  0
   -9.9430    2.3390    0.0000 C   0  0  0  0  0  0  0  0  0  0  0  0
  -11.3730    1.8880    0.0000 C   0  0  0  0  0  0  0  0  0  0  0  0
  -11.6980    0.4230    0.0000 C   0  0  0  0  0  0  0  0  0  0  0  0
  -10.5920   -0.5900    0.0000 C   0  0  0  0  0  0  0  0  0  0  0  0
   -9.1610   -0.1390    0.0000 C   0  0  0  0  0  0  0  0  0  0  0  0
   -8.0550   -1.1520    0.0000 C   0  0  0  0  0  0  0  0  0  0  0  0
   -6.6250   -0.7010    0.0000 C   0  0  0  0  0  0  0  0  0  0  0  0
   -3.9070   -1.2920    0.0000 H   0  0  0  0  0  0  0  0  0  0  0  0
   -0.9020    1.1040    0.0000 H   0  0  0  0  0  0  0  0  0  0  0  0
    0.4540    0.1190    0.0000 H   0  0  0  0  0  0  0  0  0  0  0  0
    0.3070   -4.0080    0.0000 H   0  0  0  0  0  0  0  0  0  0  0  0
    1.1910   -0.6070    0.0000 H   0  0  0  0  0  0  0  0  0  0  0  0
    1.0450   -4.7340    0.0000 H   0  0  0  0  0  0  0  0  0  0  0  0
    2.2730   -0.2660    0.0000 H   0  0  0  0  0  0  0  0  0  0  0  0
    3.1680   -3.1050    0.0000 H   0  0  0  0  0  0  0  0  0  0  0  0
    3.1710    0.5330    0.0000 H   0  0  0  0  0  0  0  0  0  0  0  0
    1.9980    1.2950    0.0000 H   0  0  0  0  0  0  0  0  0  0  0  0
   -0.1020    3.4410    0.0000 H   0  0  0  0  0  0  0  0  0  0  0  0
    1.0090    5.0900    0.0000 H   0  0  0  0  0  0  0  0  0  0  0  0
    1.3980    2.1370    0.0000 H   0  0  0  0  0  0  0  0  0  0  0  0
    5.8470    4.2250    0.0000 H   0  0  0  0  0  0  0  0  0  0  0  0
    4.3460    5.5290    0.0000 H   0  0  0  0  0  0  0  0  0  0  0  0
    4.6520    3.2880    0.0000 H   0  0  0  0  0  0  0  0  0  0  0  0
    2.4800    6.8080    0.0000 H   0  0  0  0  0  0  0  0  0  0  0  0
    4.1290    5.6960    0.0000 H   0  0  0  0  0  0  0  0  0  0  0  0
    1.1760    5.3070    0.0000 H   0  0  0  0  0  0  0  0  0  0  0  0
    7.0140    1.9100    0.0000 H   0  0  0  0  0  0  0  0  0  0  0  0
    5.5550    2.1410    0.0000 H   0  0  0  0  0  0  0  0  0  0  0  0
    7.5110    1.1870    0.0000 H   0  0  0  0  0  0  0  0  0  0  0  0
    9.8070    1.0870    0.0000 H   0  0  0  0  0  0  0  0  0  0  0  0
    8.2670    1.6330    0.0000 H   0  0  0  0  0  0  0  0  0  0  0  0
   11.1090   -1.4130    0.0000 H   0  0  0  0  0  0  0  0  0  0  0  0
   10.5290    0.4260    0.0000 H   0  0  0  0  0  0  0  0  0  0  0  0
    9.5950   -3.7910    0.0000 H   0  0  0  0  0  0  0  0  0  0  0  0
   10.8970   -2.3690    0.0000 H   0  0  0  0  0  0  0  0  0  0  0  0
    7.0340   -3.9290    0.0000 H   0  0  0  0  0  0  0  0  0  0  0  0
    8.6610   -4.0850    0.0000 H   0  0  0  0  0  0  0  0  0  0  0  0
    6.5380   -3.2060    0.0000 H   0  0  0  0  0  0  0  0  0  0  0  0
    4.3620   -3.2440    0.0000 H   0  0  0  0  0  0  0  0  0  0  0  0
    5.7820   -3.6510    0.0000 H   0  0  0  0  0  0  0  0  0  0  0  0
   -2.1810   -1.7050    0.0000 H   0  0  0  0  0  0  0  0  0  0  0  0
   -0.9450   -4.4150    0.0000 H   0  0  0  0  0  0  0  0  0  0  0  0
   -3.4330   -1.0080    0.0000 H   0  0  0  0  0  0  0  0  0  0  0  0
   -6.4700   -1.8600    0.0000 H   0  0  0  0  0  0  0  0  0  0  0  0
   -7.1190   -4.7890    0.0000 H   0  0  0  0  0  0  0  0  0  0  0  0
   -4.9070   -6.8160    0.0000 H   0  0  0  0  0  0  0  0  0  0  0  0
   -2.0460   -5.9130    0.0000 H   0  0  0  0  0  0  0  0  0  0  0  0
   -4.2810    1.9910    0.0000 H   0  0  0  0  0  0  0  0  0  0  0  0
   -1.3540    2.5340    0.0000 H   0  0  0  0  0  0  0  0  0  0  0  0
   -2.6730    6.0500    0.0000 H   0  0  0  0  0  0  0  0  0  0  0  0
   -0.7580    4.2950    0.0000 H   0  0  0  0  0  0  0  0  0  0  0  0
   -9.6180    3.8030    0.0000 H   0  0  0  0  0  0  0  0  0  0  0  0
  -12.4790    2.9010    0.0000 H   0  0  0  0  0  0  0  0  0  0  0  0
  -13.1280   -0.0280    0.0000 H   0  0  0  0  0  0  0  0  0  0  0  0
  -10.9160   -2.0550    0.0000 H   0  0  0  0  0  0  0  0  0  0  0  0
   -8.3800   -2.6170    0.0000 H   0  0  0  0  0  0  0  0  0  0  0  0
   -5.5190   -1.7140    0.0000 H   0  0  0  0  0  0  0  0  0  0  0  0
  1  2  2  0  0  0  0
  2  3  1  0  0  0  0
  2 40  1  0  0  0  0
  3  4  1  0  0  0  0
  3 50  1  0  0  0  0
  4  5  1  0  0  0  0
  4 36  1  0  0  0  0
  4 51  1  1  0  0  0
  5  6  2  0  0  0  0
  5  7  1  0  0  0  0
  7  8  1  0  0  0  0
  7 52  1  0  0  0  0
  8  9  1  0  0  0  0
  8 29  1  0  0  0  0
  8 53  1  6  0  0  0
  9 10  1  0  0  0  0
  9 11  1  0  0  0  0
  9 54  1  1  0  0  0
 10 55  1  0  0  0  0
 11 12  1  0  0  0  0
 11 56  1  0  0  0  0
 11 57  1  0  0  0  0
 12 13  1  0  0  0  0
 12 28  1  0  0  0  0
 13 14  1  0  0  0  0
 13 21  1  0  0  0  0
 13 58  1  6  0  0  0
 14 15  2  0  0  0  0
 14 16  1  0  0  0  0
 16 17  1  0  0  0  0
 16 59  1  0  0  0  0
 17 18  1  0  0  0  0
 17 19  1  0  0  0  0
 17 20  1  0  0  0  0
 18 60  1  0  0  0  0
 18 61  1  0  0  0  0
 18 62  1  0  0  0  0
 19 63  1  0  0  0  0
 19 64  1  0  0  0  0
 19 65  1  0  0  0  0
 20 66  1  0  0  0  0
 20 67  1  0  0  0  0
 20 68  1  0  0  0  0
 21 22  1  0  0  0  0
 21 69  1  0  0  0  0
 21 70  1  0  0  0  0
 22 23  1  0  0  0  0
 22 27  1  0  0  0  0
 22 71  1  6  0  0  0
 23 24  1  0  0  0  0
 23 72  1  0  0  0  0
 23 73  1  0  0  0  0
 24 25  1  0  0  0  0
 24 74  1  0  0  0  0
 24 75  1  0  0  0  0
 25 26  1  0  0  0  0
 25 76  1  0  0  0  0
 25 77  1  0  0  0  0
 26 27  1  0  0  0  0
 26 78  1  0  0  0  0
 26 79  1  0  0  0  0
 27 28  1  0  0  0  0
 27 80  1  6  0  0  0
 28 81  1  0  0  0  0
 28 82  1  0  0  0  0
 29 30  1  0  0  0  0
 29 83  1  0  0  0  0
 29 84  1  0  0  0  0
 30 31  2  0  0  0  0
 30 35  1  0  0  0  0
 31 32  1  0  0  0  0
 31 85  1  0  0  0  0
 32 33  2  0  0  0  0
 32 86  1  0  0  0  0
 33 34  1  0  0  0  0
 33 87  1  0  0  0  0
 34 35  2  0  0  0  0
 34 88  1  0  0  0  0
 35 89  1  0  0  0  0
 36 37  1  0  0  0  0
 36 90  1  0  0  0  0
 36 91  1  0  0  0  0
 37 38  2  0  0  0  0
 37 39  1  0  0  0  0
 39 92  1  0  0  0  0
 39 93  1  0  0  0  0
 40 41  2  0  0  0  0
 40 49  1  0  0  0  0
 41 42  1  0  0  0  0
 42 43  2  0  0  0  0
 42 47  1  0  0  0  0
 43 44  1  0  0  0  0
 43 94  1  0  0  0  0
 44 45  2  0  0  0  0
 44 95  1  0  0  0  0
 45 46  1  0  0  0  0
 45 96  1  0  0  0  0
 46 47  2  0  0  0  0
 46 97  1  0  0  0  0
 47 48  1  0  0  0  0
 48 49  2  0  0  0  0
 48 98  1  0  0  0  0
 49 99  1  0  0  0  0
M  END
$$$$
