2D_structures\o6_MMV690547_2D.pdb
 OpenBabel02282409193D

 45 47  0  0  0  0  0  0  0  0999 V2000
    3.9810   -0.5100    0.0000 O   0  0  0  0  0  0  0  0  0  0  0  0
    2.6390    0.1580    0.0000 C   0  0  0  0  0  0  0  0  0  0  0  0
    1.2960    0.8270    0.0000 C   0  0  0  0  0  0  0  0  0  0  0  0
    1.0470    2.3060    0.0000 N   0  0  0  0  0  0  0  0  0  0  0  0
   -0.4360    2.5270    0.0000 C   0  0  0  0  0  0  0  0  0  0  0  0
   -1.1050    1.1840    0.0000 C   0  0  0  0  0  0  0  0  0  0  0  0
   -0.0340    0.1330    0.0000 N   0  0  0  0  0  0  0  0  0  0  0  0
   -0.2550   -1.3500    0.0000 C   0  0  0  0  0  0  0  0  0  0  0  0
   -0.4760   -2.8340    0.0000 C   0  0  0  0  0  0  0  0  0  0  0  0
   -1.9600   -2.6130    0.0000 O   0  0  0  0  0  0  0  0  0  0  0  0
   -0.6970   -4.3180    0.0000 C   0  0  0  0  0  0  0  0  0  0  0  0
    1.0080   -3.0550    0.0000 C   0  0  0  0  0  0  0  0  0  0  0  0
   -2.6020    1.0920    0.0000 C   0  0  0  0  0  0  0  0  0  0  0  0
   -3.2710   -0.2510    0.0000 C   0  0  0  0  0  0  0  0  0  0  0  0
   -4.7680   -0.3440    0.0000 C   0  0  0  0  0  0  0  0  0  0  0  0
   -5.5960    0.9070    0.0000 C   0  0  0  0  0  0  0  0  0  0  0  0
   -4.9280    2.2490    0.0000 C   0  0  0  0  0  0  0  0  0  0  0  0
   -3.4310    2.3420    0.0000 C   0  0  0  0  0  0  0  0  0  0  0  0
   -2.7620    3.6850    0.0000 N   0  0  0  0  0  0  0  0  0  0  0  0
   -1.2650    3.7770    0.0000 C   0  0  0  0  0  0  0  0  0  0  0  0
   -0.5970    5.1200    0.0000 N   0  0  0  0  0  0  0  0  0  0  0  0
    5.2320    0.3190    0.0000 C   0  0  0  0  0  0  0  0  0  0  0  0
    6.4820    1.1470    0.0000 C   0  0  0  0  0  0  0  0  0  0  0  0
    2.0370   -1.0500    0.0000 H   0  0  0  0  0  0  0  0  0  0  0  0
    3.3070    1.5010    0.0000 H   0  0  0  0  0  0  0  0  0  0  0  0
    0.5330   -1.4680    0.0000 H   0  0  0  0  0  0  0  0  0  0  0  0
   -1.7550   -1.3120    0.0000 H   0  0  0  0  0  0  0  0  0  0  0  0
   -3.0290   -3.6650    0.0000 H   0  0  0  0  0  0  0  0  0  0  0  0
   -0.9180   -5.8010    0.0000 H   0  0  0  0  0  0  0  0  0  0  0  0
   -2.1960   -4.2790    0.0000 H   0  0  0  0  0  0  0  0  0  0  0  0
    0.1570   -4.5540    0.0000 H   0  0  0  0  0  0  0  0  0  0  0  0
    2.4910   -3.2760    0.0000 H   0  0  0  0  0  0  0  0  0  0  0  0
    0.9850   -3.9400    0.0000 H   0  0  0  0  0  0  0  0  0  0  0  0
    1.1380   -2.1790    0.0000 H   0  0  0  0  0  0  0  0  0  0  0  0
   -2.6000   -1.5930    0.0000 H   0  0  0  0  0  0  0  0  0  0  0  0
   -5.4360   -1.6870    0.0000 H   0  0  0  0  0  0  0  0  0  0  0  0
   -7.0940    0.8140    0.0000 H   0  0  0  0  0  0  0  0  0  0  0  0
   -5.7570    3.5000    0.0000 H   0  0  0  0  0  0  0  0  0  0  0  0
   -1.4250    6.3700    0.0000 H   0  0  0  0  0  0  0  0  0  0  0  0
    0.9000    5.2130    0.0000 H   0  0  0  0  0  0  0  0  0  0  0  0
    4.4030    1.5690    0.0000 H   0  0  0  0  0  0  0  0  0  0  0  0
    6.0600   -0.9320    0.0000 H   0  0  0  0  0  0  0  0  0  0  0  0
    7.7320    1.9760    0.0000 H   0  0  0  0  0  0  0  0  0  0  0  0
    5.6530    2.3980    0.0000 H   0  0  0  0  0  0  0  0  0  0  0  0
    7.3110   -0.1030    0.0000 H   0  0  0  0  0  0  0  0  0  0  0  0
  1  2  1  0  0  0  0
  1 22  1  0  0  0  0
  2  3  1  0  0  0  0
  2 24  1  0  0  0  0
  2 25  1  0  0  0  0
  3  4  2  0  0  0  0
  3  7  1  0  0  0  0
  4  5  1  0  0  0  0
  5  6  2  0  0  0  0
  5 20  1  0  0  0  0
  6  7  1  0  0  0  0
  6 13  1  0  0  0  0
  7  8  1  0  0  0  0
  8  9  1  0  0  0  0
  8 26  1  0  0  0  0
  8 27  1  0  0  0  0
  9 10  1  0  0  0  0
  9 11  1  0  0  0  0
  9 12  1  0  0  0  0
 10 28  1  0  0  0  0
 11 29  1  0  0  0  0
 11 30  1  0  0  0  0
 11 31  1  0  0  0  0
 12 32  1  0  0  0  0
 12 33  1  0  0  0  0
 12 34  1  0  0  0  0
 13 14  2  0  0  0  0
 13 18  1  0  0  0  0
 14 15  1  0  0  0  0
 14 35  1  0  0  0  0
 15 16  2  0  0  0  0
 15 36  1  0  0  0  0
 16 17  1  0  0  0  0
 16 37  1  0  0  0  0
 17 18  2  0  0  0  0
 17 38  1  0  0  0  0
 18 19  1  0  0  0  0
 19 20  2  0  0  0  0
 20 21  1  0  0  0  0
 21 39  1  0  0  0  0
 21 40  1  0  0  0  0
 22 23  1  0  0  0  0
 22 41  1  0  0  0  0
 22 42  1  0  0  0  0
 23 43  1  0  0  0  0
 23 44  1  0  0  0  0
 23 45  1  0  0  0  0
M  END
$$$$
