2D_structures\o8_MMV1580497_2D.pdb
 OpenBabel02282409193D

 82 84  0  0  1  0  0  0  0  0999 V2000
   -4.2430    0.0220    0.0000 O   0  0  0  0  0  0  0  0  0  0  0  0
   -4.2270   -0.7750    0.0000 C   0  0  0  0  0  0  0  0  0  0  0  0
   -5.5960   -1.3880    0.0000 N   0  0  0  0  0  0  0  0  0  0  0  0
   -6.8110   -0.5090    0.0000 C   0  0  0  0  0  0  0  0  0  0  0  0
   -7.6900   -1.7250    0.0000 C   0  0  0  0  0  0  0  0  0  0  0  0
   -5.9330    0.7060    0.0000 C   0  0  0  0  0  0  0  0  0  0  0  0
   -8.0270    0.3700    0.0000 C   0  0  0  0  0  0  0  0  0  0  0  0
   -3.0110   -1.6530    0.0000 N   0  0  0  0  0  0  0  0  0  0  0  0
   -1.6430   -1.0400    0.0000 C   0  0  1  0  0  0  0  0  0  0  0  0
   -1.0290   -2.4090    0.0000 C   0  0  0  0  0  0  0  0  0  0  0  0
   -1.9080   -3.6250    0.0000 O   0  0  0  0  0  0  0  0  0  0  0  0
    0.4630   -2.5620    0.0000 N   0  0  0  0  0  0  0  0  0  0  0  0
    1.4640   -1.4450    0.0000 C   0  0  1  0  0  0  0  0  0  0  0  0
    2.2110   -0.1440    0.0000 C   0  0  0  0  0  0  0  0  0  0  0  0
    3.6660    0.2220    0.0000 O   0  0  0  0  0  0  0  0  0  0  0  0
    1.4580    1.1530    0.0000 N   0  0  0  0  0  0  0  0  0  0  0  0
    2.2050    2.4540    0.0000 C   0  0  1  0  0  0  0  0  0  0  0  0
    0.9040    3.2010    0.0000 C   0  0  0  0  0  0  0  0  0  0  0  0
   -0.3930    2.4480    0.0000 O   0  0  0  0  0  0  0  0  0  0  0  0
    0.9000    4.7010    0.0000 C   0  0  0  0  0  0  0  0  0  0  0  0
    2.1980    5.4540    0.0000 O   0  0  0  0  0  0  0  0  0  0  0  0
   -0.4000    5.4480    0.0000 N   0  0  0  0  0  0  0  0  0  0  0  0
    3.5060    1.7070    0.0000 C   0  0  0  0  0  0  0  0  0  0  0  0
    4.8060    0.9600    0.0000 C   0  0  0  0  0  0  0  0  0  0  0  0
    5.5530    2.2610    0.0000 C   0  0  0  0  0  0  0  0  0  0  0  0
    6.8540    1.5140    0.0000 C   0  0  0  0  0  0  0  0  0  0  0  0
    6.1070    0.2130    0.0000 C   0  0  0  0  0  0  0  0  0  0  0  0
    2.8360   -2.0520    0.0000 C   0  0  1  0  0  0  0  0  0  0  0  0
    4.0510   -2.9310    0.0000 C   0  0  0  0  0  0  0  0  0  0  0  0
    5.1280   -1.8860    0.0000 C   0  0  0  0  0  0  0  0  0  0  0  0
    4.8930   -4.1720    0.0000 C   0  0  0  0  0  0  0  0  0  0  0  0
    2.6830   -3.5440    0.0000 C   0  0  1  0  0  0  0  0  0  0  0  0
    1.2160   -3.8590    0.0000 C   0  0  0  0  0  0  0  0  0  0  0  0
   -2.2560    0.3290    0.0000 C   0  0  0  0  0  0  0  0  0  0  0  0
   -2.8690    1.6980    0.0000 C   0  0  0  0  0  0  0  0  0  0  0  0
   -3.6250   -0.2850    0.0000 C   0  0  0  0  0  0  0  0  0  0  0  0
   -0.8870    0.9420    0.0000 C   0  0  0  0  0  0  0  0  0  0  0  0
   -5.5660   -2.8880    0.0000 H   0  0  0  0  0  0  0  0  0  0  0  0
   -8.5690   -2.9400    0.0000 H   0  0  0  0  0  0  0  0  0  0  0  0
   -9.0040   -1.0010    0.0000 H   0  0  0  0  0  0  0  0  0  0  0  0
   -6.5910   -2.7450    0.0000 H   0  0  0  0  0  0  0  0  0  0  0  0
   -5.0540    1.9220    0.0000 H   0  0  0  0  0  0  0  0  0  0  0  0
   -7.0320    1.7270    0.0000 H   0  0  0  0  0  0  0  0  0  0  0  0
   -5.0710    0.2310    0.0000 H   0  0  0  0  0  0  0  0  0  0  0  0
   -9.2430    1.2480    0.0000 H   0  0  0  0  0  0  0  0  0  0  0  0
   -7.3030    1.6830    0.0000 H   0  0  0  0  0  0  0  0  0  0  0  0
   -9.0480   -0.7300    0.0000 H   0  0  0  0  0  0  0  0  0  0  0  0
   -3.1650   -3.1460    0.0000 H   0  0  0  0  0  0  0  0  0  0  0  0
   -0.2740   -0.4270    0.0000 H   0  0  0  0  0  0  0  0  0  0  0  0
    0.2480   -0.5660    0.0000 H   0  0  0  0  0  0  0  0  0  0  0  0
   -0.0310    1.3320    0.0000 H   0  0  0  0  0  0  0  0  0  0  0  0
    2.9520    3.7550    0.0000 H   0  0  0  0  0  0  0  0  0  0  0  0
   -0.4040    6.9480    0.0000 H   0  0  0  0  0  0  0  0  0  0  0  0
   -1.6980    4.6950    0.0000 H   0  0  0  0  0  0  0  0  0  0  0  0
    4.0880    3.0890    0.0000 H   0  0  0  0  0  0  0  0  0  0  0  0
    3.0960    0.2640    0.0000 H   0  0  0  0  0  0  0  0  0  0  0  0
    5.2160    2.4030    0.0000 H   0  0  0  0  0  0  0  0  0  0  0  0
    6.3000    3.5620    0.0000 H   0  0  0  0  0  0  0  0  0  0  0  0
    4.3530    3.1610    0.0000 H   0  0  0  0  0  0  0  0  0  0  0  0
    8.1550    0.7670    0.0000 H   0  0  0  0  0  0  0  0  0  0  0  0
    7.6010    2.8150    0.0000 H   0  0  0  0  0  0  0  0  0  0  0  0
    5.5240   -1.1690    0.0000 H   0  0  0  0  0  0  0  0  0  0  0  0
    7.4080   -0.5340    0.0000 H   0  0  0  0  0  0  0  0  0  0  0  0
    3.5830   -0.7510    0.0000 H   0  0  0  0  0  0  0  0  0  0  0  0
    6.3240   -0.9810    0.0000 H   0  0  0  0  0  0  0  0  0  0  0  0
    6.2960   -2.8270    0.0000 H   0  0  0  0  0  0  0  0  0  0  0  0
    4.3750   -0.5890    0.0000 H   0  0  0  0  0  0  0  0  0  0  0  0
    5.7350   -5.4140    0.0000 H   0  0  0  0  0  0  0  0  0  0  0  0
    3.7630   -5.1590    0.0000 H   0  0  0  0  0  0  0  0  0  0  0  0
    6.2280   -3.4880    0.0000 H   0  0  0  0  0  0  0  0  0  0  0  0
    2.9720   -5.0160    0.0000 H   0  0  0  0  0  0  0  0  0  0  0  0
   -0.1530   -4.4730    0.0000 H   0  0  0  0  0  0  0  0  0  0  0  0
    1.6830   -5.2850    0.0000 H   0  0  0  0  0  0  0  0  0  0  0  0
   -3.4830    3.0660    0.0000 H   0  0  0  0  0  0  0  0  0  0  0  0
   -1.5000    2.3110    0.0000 H   0  0  0  0  0  0  0  0  0  0  0  0
   -1.6890    2.6240    0.0000 H   0  0  0  0  0  0  0  0  0  0  0  0
   -5.1230   -0.3670    0.0000 H   0  0  0  0  0  0  0  0  0  0  0  0
   -4.0670    1.1490    0.0000 H   0  0  0  0  0  0  0  0  0  0  0  0
   -3.3610   -1.7610    0.0000 H   0  0  0  0  0  0  0  0  0  0  0  0
    0.3970    1.7180    0.0000 H   0  0  0  0  0  0  0  0  0  0  0  0
   -1.1510    2.4190    0.0000 H   0  0  0  0  0  0  0  0  0  0  0  0
   -0.2740   -0.4270    0.0000 H   0  0  0  0  0  0  0  0  0  0  0  0
  1  2  2  0  0  0  0
  2  3  1  0  0  0  0
  2  8  1  0  0  0  0
  3  4  1  0  0  0  0
  3 38  1  0  0  0  0
  4  5  1  0  0  0  0
  4  6  1  0  0  0  0
  4  7  1  0  0  0  0
  5 39  1  0  0  0  0
  5 40  1  0  0  0  0
  5 41  1  0  0  0  0
  6 42  1  0  0  0  0
  6 43  1  0  0  0  0
  6 44  1  0  0  0  0
  7 45  1  0  0  0  0
  7 46  1  0  0  0  0
  7 47  1  0  0  0  0
  8  9  1  0  0  0  0
  8 48  1  0  0  0  0
  9 10  1  0  0  0  0
  9 34  1  0  0  0  0
  9 49  1  1  0  0  0
 10 11  2  0  0  0  0
 10 12  1  0  0  0  0
 12 13  1  0  0  0  0
 12 33  1  0  0  0  0
 13 14  1  0  0  0  0
 13 28  1  0  0  0  0
 13 50  1  6  0  0  0
 14 15  2  0  0  0  0
 14 16  1  0  0  0  0
 16 17  1  0  0  0  0
 16 51  1  0  0  0  0
 17 18  1  0  0  0  0
 17 23  1  0  0  0  0
 17 52  1  6  0  0  0
 18 19  2  0  0  0  0
 18 20  1  0  0  0  0
 20 21  2  0  0  0  0
 20 22  1  0  0  0  0
 22 53  1  0  0  0  0
 22 54  1  0  0  0  0
 23 24  1  0  0  0  0
 23 55  1  0  0  0  0
 23 56  1  0  0  0  0
 24 25  1  0  0  0  0
 24 27  1  0  0  0  0
 24 57  1  0  0  0  0
 25 26  1  0  0  0  0
 25 58  1  0  0  0  0
 25 59  1  0  0  0  0
 26 27  1  0  0  0  0
 26 60  1  0  0  0  0
 26 61  1  0  0  0  0
 27 62  1  0  0  0  0
 27 63  1  0  0  0  0
 28 29  1  0  0  0  0
 28 32  1  0  0  0  0
 28 64  1  6  0  0  0
 29 30  1  0  0  0  0
 29 31  1  0  0  0  0
 29 32  1  0  0  0  0
 30 65  1  0  0  0  0
 30 66  1  0  0  0  0
 30 67  1  0  0  0  0
 31 68  1  0  0  0  0
 31 69  1  0  0  0  0
 31 70  1  0  0  0  0
 32 33  1  0  0  0  0
 32 71  1  6  0  0  0
 33 72  1  0  0  0  0
 33 73  1  0  0  0  0
 34 35  1  0  0  0  0
 34 36  1  0  0  0  0
 34 37  1  0  0  0  0
 35 74  1  0  0  0  0
 35 75  1  0  0  0  0
 35 76  1  0  0  0  0
 36 77  1  0  0  0  0
 36 78  1  0  0  0  0
 36 79  1  0  0  0  0
 37 80  1  0  0  0  0
 37 81  1  0  0  0  0
 37 82  1  0  0  0  0
M  END
$$$$
