2D_structures\o18_MMV1580487_2D.pdb
 OpenBabel02282413353D

 50 53  0  0  1  0  0  0  0  0999 V2000
   -6.6130   -1.7370    0.0000 O   0  0  0  0  0  0  0  0  0  0  0  0
   -7.0950   -0.3160    0.0000 C   0  0  0  0  0  0  0  0  0  0  0  0
   -6.1060    0.8120    0.0000 N   0  0  0  0  0  0  0  0  0  0  0  0
   -4.6350    0.5190    0.0000 C   0  0  0  0  0  0  0  0  0  0  0  0
   -4.1530   -0.9010    0.0000 C   0  0  0  0  0  0  0  0  0  0  0  0
   -2.6820   -1.1940    0.0000 C   0  0  0  0  0  0  0  0  0  0  0  0
   -1.6930   -0.0660    0.0000 C   0  0  0  0  0  0  0  0  0  0  0  0
   -0.2210   -0.3580    0.0000 C   0  0  0  0  0  0  0  0  0  0  0  0
    0.2610   -1.7790    0.0000 N   0  0  0  0  0  0  0  0  0  0  0  0
    1.7320   -2.0710    0.0000 N   0  0  0  0  0  0  0  0  0  0  0  0
    2.7210   -0.9430    0.0000 C   0  0  0  0  0  0  0  0  0  0  0  0
    2.3360   -0.1450    0.0000 O   0  0  0  0  0  0  0  0  0  0  0  0
    4.1920   -1.2360    0.0000 C   0  0  1  0  0  0  0  0  0  0  0  0
    5.6750   -1.0070    0.0000 C   0  0  1  0  0  0  0  0  0  0  0  0
    6.9900   -0.2860    0.0000 C   0  0  0  0  0  0  0  0  0  0  0  0
    7.0220    1.2140    0.0000 C   0  0  0  0  0  0  0  0  0  0  0  0
    8.3370    1.9360    0.0000 C   0  0  0  0  0  0  0  0  0  0  0  0
    9.6200    1.1580    0.0000 C   0  0  0  0  0  0  0  0  0  0  0  0
    9.5870   -0.3420    0.0000 C   0  0  0  0  0  0  0  0  0  0  0  0
    8.2720   -1.0640    0.0000 C   0  0  0  0  0  0  0  0  0  0  0  0
    4.7360    0.1620    0.0000 C   0  0  0  0  0  0  0  0  0  0  0  0
    0.7670    0.7700    0.0000 C   0  0  0  0  0  0  0  0  0  0  0  0
   -2.1750    1.3550    0.0000 C   0  0  0  0  0  0  0  0  0  0  0  0
   -3.6460    1.6470    0.0000 C   0  0  0  0  0  0  0  0  0  0  0  0
   -8.5660   -0.0240    0.0000 C   0  0  0  0  0  0  0  0  0  0  0  0
   -9.6680   -1.0420    0.0000 C   0  0  0  0  0  0  0  0  0  0  0  0
  -10.9770   -0.3090    0.0000 C   0  0  0  0  0  0  0  0  0  0  0  0
  -10.6840    1.1620    0.0000 C   0  0  0  0  0  0  0  0  0  0  0  0
   -9.1950    1.3380    0.0000 O   0  0  0  0  0  0  0  0  0  0  0  0
   -6.5890    2.2320    0.0000 H   0  0  0  0  0  0  0  0  0  0  0  0
   -5.1420   -2.0290    0.0000 H   0  0  0  0  0  0  0  0  0  0  0  0
   -2.1990   -2.6140    0.0000 H   0  0  0  0  0  0  0  0  0  0  0  0
    2.2140   -3.4910    0.0000 H   0  0  0  0  0  0  0  0  0  0  0  0
    4.1600   -2.7350    0.0000 H   0  0  0  0  0  0  0  0  0  0  0  0
    6.1570   -2.4280    0.0000 H   0  0  0  0  0  0  0  0  0  0  0  0
    6.0680    1.9660    0.0000 H   0  0  0  0  0  0  0  0  0  0  0  0
    8.3700    3.4350    0.0000 H   0  0  0  0  0  0  0  0  0  0  0  0
   10.9350    1.8790    0.0000 H   0  0  0  0  0  0  0  0  0  0  0  0
   10.8700   -1.1200    0.0000 H   0  0  0  0  0  0  0  0  0  0  0  0
    8.2400   -2.5630    0.0000 H   0  0  0  0  0  0  0  0  0  0  0  0
    5.4190    1.1670    0.0000 H   0  0  0  0  0  0  0  0  0  0  0  0
    3.4530    0.9400    0.0000 H   0  0  0  0  0  0  0  0  0  0  0  0
    1.3570    0.1090    0.0000 H   0  0  0  0  0  0  0  0  0  0  0  0
   -0.3600    1.7590    0.0000 H   0  0  0  0  0  0  0  0  0  0  0  0
    1.7560    1.8970    0.0000 H   0  0  0  0  0  0  0  0  0  0  0  0
   -1.1860    2.4820    0.0000 H   0  0  0  0  0  0  0  0  0  0  0  0
   -4.1290    3.0670    0.0000 H   0  0  0  0  0  0  0  0  0  0  0  0
   -9.4910   -2.5320    0.0000 H   0  0  0  0  0  0  0  0  0  0  0  0
  -12.3390   -0.9370    0.0000 H   0  0  0  0  0  0  0  0  0  0  0  0
  -11.7020    2.2630    0.0000 H   0  0  0  0  0  0  0  0  0  0  0  0
  1  2  2  0  0  0  0
  2  3  1  0  0  0  0
  2 25  1  0  0  0  0
  3  4  1  0  0  0  0
  3 30  1  0  0  0  0
  4  5  2  0  0  0  0
  4 24  1  0  0  0  0
  5  6  1  0  0  0  0
  5 31  1  0  0  0  0
  6  7  2  0  0  0  0
  6 32  1  0  0  0  0
  7  8  1  0  0  0  0
  7 23  1  0  0  0  0
  8  9  2  0  0  0  0
  8 22  1  0  0  0  0
  9 10  1  0  0  0  0
 10 11  1  0  0  0  0
 10 33  1  0  0  0  0
 11 12  2  0  0  0  0
 11 13  1  0  0  0  0
 13 14  1  0  0  0  0
 13 21  1  0  0  0  0
 13 34  1  1  0  0  0
 14 15  1  0  0  0  0
 14 21  1  0  0  0  0
 14 35  1  1  0  0  0
 15 16  2  0  0  0  0
 15 20  1  0  0  0  0
 16 17  1  0  0  0  0
 16 36  1  0  0  0  0
 17 18  2  0  0  0  0
 17 37  1  0  0  0  0
 18 19  1  0  0  0  0
 18 38  1  0  0  0  0
 19 20  2  0  0  0  0
 19 39  1  0  0  0  0
 20 40  1  0  0  0  0
 21 41  1  0  0  0  0
 21 42  1  0  0  0  0
 22 43  1  0  0  0  0
 22 44  1  0  0  0  0
 22 45  1  0  0  0  0
 23 24  2  0  0  0  0
 23 46  1  0  0  0  0
 24 47  1  0  0  0  0
 25 26  2  0  0  0  0
 25 29  1  0  0  0  0
 26 27  1  0  0  0  0
 26 48  1  0  0  0  0
 27 28  2  0  0  0  0
 27 49  1  0  0  0  0
 28 29  1  0  0  0  0
 28 50  1  0  0  0  0
M  END
$$$$
