2D_structures\o29_MMV1580502_2D.pdb
 OpenBabel02282413353D

 90 92  0  0  0  0  0  0  0  0999 V2000
    4.5070    0.0050    0.0000 N   0  0  0  0  0  0  0  0  0  0  0  0
    4.8440   -1.4570    0.0000 C   0  0  0  0  0  0  0  0  0  0  0  0
    5.7820   -2.6280    0.0000 C   0  0  0  0  0  0  0  0  0  0  0  0
    7.1350   -3.2760    0.0000 N   0  0  0  0  0  0  0  0  0  0  0  0
    8.6350   -3.2720    0.0000 C   0  0  0  0  0  0  0  0  0  0  0  0
    9.9850   -2.6190    0.0000 C   0  0  0  0  0  0  0  0  0  0  0  0
   10.9170   -1.4440    0.0000 C   0  0  0  0  0  0  0  0  0  0  0  0
   11.2480    0.0190    0.0000 N   0  0  0  0  0  0  0  0  0  0  0  0
   10.9110    1.4810    0.0000 C   0  0  0  0  0  0  0  0  0  0  0  0
    9.9730    2.6520    0.0000 C   0  0  0  0  0  0  0  0  0  0  0  0
    8.6200    3.3000    0.0000 N   0  0  0  0  0  0  0  0  0  0  0  0
    7.1200    3.2960    0.0000 C   0  0  0  0  0  0  0  0  0  0  0  0
    5.7700    2.6420    0.0000 C   0  0  0  0  0  0  0  0  0  0  0  0
    4.8370    1.4680    0.0000 C   0  0  0  0  0  0  0  0  0  0  0  0
    3.0070    0.0010    0.0000 C   0  0  0  0  0  0  0  0  0  0  0  0
    1.5070   -0.0020    0.0000 C   0  0  0  0  0  0  0  0  0  0  0  0
    0.7540    1.2950    0.0000 C   0  0  0  0  0  0  0  0  0  0  0  0
   -0.7460    1.2920    0.0000 C   0  0  0  0  0  0  0  0  0  0  0  0
   -1.4930   -0.0090    0.0000 C   0  0  0  0  0  0  0  0  0  0  0  0
   -2.9930   -0.0120    0.0000 C   0  0  0  0  0  0  0  0  0  0  0  0
   -4.4930   -0.0150    0.0000 N   0  0  0  0  0  0  0  0  0  0  0  0
   -4.8300    1.4460    0.0000 C   0  0  0  0  0  0  0  0  0  0  0  0
   -5.7680    2.6170    0.0000 C   0  0  0  0  0  0  0  0  0  0  0  0
   -7.1210    3.2650    0.0000 N   0  0  0  0  0  0  0  0  0  0  0  0
   -8.6210    3.2610    0.0000 C   0  0  0  0  0  0  0  0  0  0  0  0
   -9.9710    2.6080    0.0000 C   0  0  0  0  0  0  0  0  0  0  0  0
  -10.9040    1.4330    0.0000 C   0  0  0  0  0  0  0  0  0  0  0  0
  -11.2340   -0.0300    0.0000 N   0  0  0  0  0  0  0  0  0  0  0  0
  -10.8970   -1.4920    0.0000 C   0  0  0  0  0  0  0  0  0  0  0  0
   -9.9590   -2.6630    0.0000 C   0  0  0  0  0  0  0  0  0  0  0  0
   -8.6060   -3.3100    0.0000 N   0  0  0  0  0  0  0  0  0  0  0  0
   -7.1060   -3.3070    0.0000 C   0  0  0  0  0  0  0  0  0  0  0  0
   -5.7560   -2.6530    0.0000 C   0  0  0  0  0  0  0  0  0  0  0  0
   -4.8240   -1.4790    0.0000 C   0  0  0  0  0  0  0  0  0  0  0  0
   -0.7400   -1.3060    0.0000 C   0  0  0  0  0  0  0  0  0  0  0  0
    0.7600   -1.3030    0.0000 C   0  0  0  0  0  0  0  0  0  0  0  0
    4.1880   -2.3320    0.0000 H   0  0  0  0  0  0  0  0  0  0  0  0
    3.3440   -1.4190    0.0000 H   0  0  0  0  0  0  0  0  0  0  0  0
    5.6730   -4.1240    0.0000 H   0  0  0  0  0  0  0  0  0  0  0  0
    4.7850   -3.0770    0.0000 H   0  0  0  0  0  0  0  0  0  0  0  0
    6.8040   -4.7390    0.0000 H   0  0  0  0  0  0  0  0  0  0  0  0
    9.3410   -4.1070    0.0000 H   0  0  0  0  0  0  0  0  0  0  0  0
    8.0900   -4.6700    0.0000 H   0  0  0  0  0  0  0  0  0  0  0  0
   10.9830   -3.0640    0.0000 H   0  0  0  0  0  0  0  0  0  0  0  0
   10.2010   -3.6900    0.0000 H   0  0  0  0  0  0  0  0  0  0  0  0
   12.4000   -1.2170    0.0000 H   0  0  0  0  0  0  0  0  0  0  0  0
   11.5770   -2.3160    0.0000 H   0  0  0  0  0  0  0  0  0  0  0  0
   12.7480    0.0230    0.0000 H   0  0  0  0  0  0  0  0  0  0  0  0
   11.5670    2.3560    0.0000 H   0  0  0  0  0  0  0  0  0  0  0  0
   12.3940    1.2610    0.0000 H   0  0  0  0  0  0  0  0  0  0  0  0
   10.0820    4.1480    0.0000 H   0  0  0  0  0  0  0  0  0  0  0  0
   10.9700    3.1010    0.0000 H   0  0  0  0  0  0  0  0  0  0  0  0
    8.9510    4.7630    0.0000 H   0  0  0  0  0  0  0  0  0  0  0  0
    6.4130    4.1310    0.0000 H   0  0  0  0  0  0  0  0  0  0  0  0
    7.6650    4.6940    0.0000 H   0  0  0  0  0  0  0  0  0  0  0  0
    4.4000    3.2530    0.0000 H   0  0  0  0  0  0  0  0  0  0  0  0
    5.5540    3.7140    0.0000 H   0  0  0  0  0  0  0  0  0  0  0  0
    3.3380    1.4230    0.0000 H   0  0  0  0  0  0  0  0  0  0  0  0
    3.9320    2.6640    0.0000 H   0  0  0  0  0  0  0  0  0  0  0  0
    2.8270   -1.4880    0.0000 H   0  0  0  0  0  0  0  0  0  0  0  0
    2.8210    1.4900    0.0000 H   0  0  0  0  0  0  0  0  0  0  0  0
    1.5010    2.5960    0.0000 H   0  0  0  0  0  0  0  0  0  0  0  0
   -1.4990    2.5890    0.0000 H   0  0  0  0  0  0  0  0  0  0  0  0
   -2.8070   -1.5000    0.0000 H   0  0  0  0  0  0  0  0  0  0  0  0
   -2.8140    1.4770    0.0000 H   0  0  0  0  0  0  0  0  0  0  0  0
   -3.9300    2.6460    0.0000 H   0  0  0  0  0  0  0  0  0  0  0  0
   -3.3310    1.4080    0.0000 H   0  0  0  0  0  0  0  0  0  0  0  0
   -5.6590    4.1130    0.0000 H   0  0  0  0  0  0  0  0  0  0  0  0
   -4.4010    3.2340    0.0000 H   0  0  0  0  0  0  0  0  0  0  0  0
   -6.7900    4.7280    0.0000 H   0  0  0  0  0  0  0  0  0  0  0  0
   -9.5900    4.4060    0.0000 H   0  0  0  0  0  0  0  0  0  0  0  0
   -8.0760    4.6590    0.0000 H   0  0  0  0  0  0  0  0  0  0  0  0
  -11.3410    3.2180    0.0000 H   0  0  0  0  0  0  0  0  0  0  0  0
  -10.2680    4.0780    0.0000 H   0  0  0  0  0  0  0  0  0  0  0  0
  -12.3860    1.2060    0.0000 H   0  0  0  0  0  0  0  0  0  0  0  0
  -11.8090    2.6290    0.0000 H   0  0  0  0  0  0  0  0  0  0  0  0
  -12.7340   -0.0340    0.0000 H   0  0  0  0  0  0  0  0  0  0  0  0
  -11.7970   -2.6920    0.0000 H   0  0  0  0  0  0  0  0  0  0  0  0
  -12.3810   -1.2720    0.0000 H   0  0  0  0  0  0  0  0  0  0  0  0
  -10.0680   -4.1590    0.0000 H   0  0  0  0  0  0  0  0  0  0  0  0
  -11.3270   -3.2790    0.0000 H   0  0  0  0  0  0  0  0  0  0  0  0
   -8.9370   -4.7740    0.0000 H   0  0  0  0  0  0  0  0  0  0  0  0
   -6.1370   -4.4520    0.0000 H   0  0  0  0  0  0  0  0  0  0  0  0
   -7.6510   -4.7050    0.0000 H   0  0  0  0  0  0  0  0  0  0  0  0
   -4.3860   -3.2640    0.0000 H   0  0  0  0  0  0  0  0  0  0  0  0
   -5.4590   -4.1240    0.0000 H   0  0  0  0  0  0  0  0  0  0  0  0
   -3.3240   -1.4340    0.0000 H   0  0  0  0  0  0  0  0  0  0  0  0
   -3.9180   -2.6740    0.0000 H   0  0  0  0  0  0  0  0  0  0  0  0
   -1.4870   -2.6070    0.0000 H   0  0  0  0  0  0  0  0  0  0  0  0
    1.5130   -2.6000    0.0000 H   0  0  0  0  0  0  0  0  0  0  0  0
  1  2  1  0  0  0  0
  1 14  1  0  0  0  0
  1 15  1  0  0  0  0
  2  3  1  0  0  0  0
  2 37  1  0  0  0  0
  2 38  1  0  0  0  0
  3  4  1  0  0  0  0
  3 39  1  0  0  0  0
  3 40  1  0  0  0  0
  4  5  1  0  0  0  0
  4 41  1  0  0  0  0
  5  6  1  0  0  0  0
  5 42  1  0  0  0  0
  5 43  1  0  0  0  0
  6  7  1  0  0  0  0
  6 44  1  0  0  0  0
  6 45  1  0  0  0  0
  7  8  1  0  0  0  0
  7 46  1  0  0  0  0
  7 47  1  0  0  0  0
  8  9  1  0  0  0  0
  8 48  1  0  0  0  0
  9 10  1  0  0  0  0
  9 49  1  0  0  0  0
  9 50  1  0  0  0  0
 10 11  1  0  0  0  0
 10 51  1  0  0  0  0
 10 52  1  0  0  0  0
 11 12  1  0  0  0  0
 11 53  1  0  0  0  0
 12 13  1  0  0  0  0
 12 54  1  0  0  0  0
 12 55  1  0  0  0  0
 13 14  1  0  0  0  0
 13 56  1  0  0  0  0
 13 57  1  0  0  0  0
 14 58  1  0  0  0  0
 14 59  1  0  0  0  0
 15 16  1  0  0  0  0
 15 60  1  0  0  0  0
 15 61  1  0  0  0  0
 16 17  2  0  0  0  0
 16 36  1  0  0  0  0
 17 18  1  0  0  0  0
 17 62  1  0  0  0  0
 18 19  2  0  0  0  0
 18 63  1  0  0  0  0
 19 20  1  0  0  0  0
 19 35  1  0  0  0  0
 20 21  1  0  0  0  0
 20 64  1  0  0  0  0
 20 65  1  0  0  0  0
 21 22  1  0  0  0  0
 21 34  1  0  0  0  0
 22 23  1  0  0  0  0
 22 66  1  0  0  0  0
 22 67  1  0  0  0  0
 23 24  1  0  0  0  0
 23 68  1  0  0  0  0
 23 69  1  0  0  0  0
 24 25  1  0  0  0  0
 24 70  1  0  0  0  0
 25 26  1  0  0  0  0
 25 71  1  0  0  0  0
 25 72  1  0  0  0  0
 26 27  1  0  0  0  0
 26 73  1  0  0  0  0
 26 74  1  0  0  0  0
 27 28  1  0  0  0  0
 27 75  1  0  0  0  0
 27 76  1  0  0  0  0
 28 29  1  0  0  0  0
 28 77  1  0  0  0  0
 29 30  1  0  0  0  0
 29 78  1  0  0  0  0
 29 79  1  0  0  0  0
 30 31  1  0  0  0  0
 30 80  1  0  0  0  0
 30 81  1  0  0  0  0
 31 32  1  0  0  0  0
 31 82  1  0  0  0  0
 32 33  1  0  0  0  0
 32 83  1  0  0  0  0
 32 84  1  0  0  0  0
 33 34  1  0  0  0  0
 33 85  1  0  0  0  0
 33 86  1  0  0  0  0
 34 87  1  0  0  0  0
 34 88  1  0  0  0  0
 35 36  2  0  0  0  0
 35 89  1  0  0  0  0
 36 90  1  0  0  0  0
M  END
$$$$
