2D_structures\o35_MMV1580496_2D.pdb
 OpenBabel02282413353D

 22 22  0  0  0  0  0  0  0  0999 V2000
   -2.5850   -1.2570    0.0000 S   0  0  0  0  0  0  0  0  0  0  0  0
   -3.4560   -0.0360    0.0000 C   0  0  0  0  0  0  0  0  0  0  0  0
   -2.8340    1.3290    0.0000 N   0  0  0  0  0  0  0  0  0  0  0  0
   -1.3400    1.4730    0.0000 N   0  0  0  0  0  0  0  0  0  0  0  0
   -0.4690    0.2510    0.0000 C   0  0  0  0  0  0  0  0  0  0  0  0
    1.0240    0.3950    0.0000 C   0  0  0  0  0  0  0  0  0  0  0  0
    1.6460    1.7600    0.0000 N   0  0  0  0  0  0  0  0  0  0  0  0
    3.1390    1.9040    0.0000 C   0  0  0  0  0  0  0  0  0  0  0  0
    4.0100    0.6830    0.0000 C   0  0  0  0  0  0  0  0  0  0  0  0
    3.3880   -0.6820    0.0000 C   0  0  0  0  0  0  0  0  0  0  0  0
    1.8950   -0.8260    0.0000 C   0  0  0  0  0  0  0  0  0  0  0  0
    1.2730   -2.1910    0.0000 N   0  0  0  0  0  0  0  0  0  0  0  0
   -4.9490   -0.1800    0.0000 N   0  0  0  0  0  0  0  0  0  0  0  0
   -3.7050    2.5500    0.0000 H   0  0  0  0  0  0  0  0  0  0  0  0
   -1.0920   -1.1130    0.0000 H   0  0  0  0  0  0  0  0  0  0  0  0
    3.7610    3.2690    0.0000 H   0  0  0  0  0  0  0  0  0  0  0  0
    5.5030    0.8260    0.0000 H   0  0  0  0  0  0  0  0  0  0  0  0
    4.2590   -1.9040    0.0000 H   0  0  0  0  0  0  0  0  0  0  0  0
   -0.2210   -2.3350    0.0000 H   0  0  0  0  0  0  0  0  0  0  0  0
    2.1440   -3.4120    0.0000 H   0  0  0  0  0  0  0  0  0  0  0  0
   -5.5710   -1.5450    0.0000 H   0  0  0  0  0  0  0  0  0  0  0  0
   -5.8200    1.0410    0.0000 H   0  0  0  0  0  0  0  0  0  0  0  0
  1  2  2  0  0  0  0
  2  3  1  0  0  0  0
  2 13  1  0  0  0  0
  3  4  1  0  0  0  0
  3 14  1  0  0  0  0
  4  5  2  0  0  0  0
  5  6  1  0  0  0  0
  5 15  1  0  0  0  0
  6  7  2  0  0  0  0
  6 11  1  0  0  0  0
  7  8  1  0  0  0  0
  8  9  2  0  0  0  0
  8 16  1  0  0  0  0
  9 10  1  0  0  0  0
  9 17  1  0  0  0  0
 10 11  2  0  0  0  0
 10 18  1  0  0  0  0
 11 12  1  0  0  0  0
 12 19  1  0  0  0  0
 12 20  1  0  0  0  0
 13 21  1  0  0  0  0
 13 22  1  0  0  0  0
M  END
$$$$
