2D_structures\o40_MMV1634389_2D.pdb
 OpenBabel02282413353D

 33 35  0  0  0  0  0  0  0  0999 V2000
   -3.1940   -4.7960    0.0000 F   0  0  0  0  0  0  0  0  0  0  0  0
   -3.0480   -3.3030    0.0000 C   0  0  0  0  0  0  0  0  0  0  0  0
   -4.5400   -3.1560    0.0000 F   0  0  0  0  0  0  0  0  0  0  0  0
   -1.5550   -3.4490    0.0000 F   0  0  0  0  0  0  0  0  0  0  0  0
   -2.9010   -1.8100    0.0000 C   0  0  0  0  0  0  0  0  0  0  0  0
   -4.1210   -0.9370    0.0000 N   0  0  0  0  0  0  0  0  0  0  0  0
   -3.9740    0.5560    0.0000 C   0  0  0  0  0  0  0  0  0  0  0  0
   -2.6080    1.1760    0.0000 C   0  0  0  0  0  0  0  0  0  0  0  0
   -2.1540    2.6050    0.0000 N   0  0  0  0  0  0  0  0  0  0  0  0
   -0.6540    2.6160    0.0000 C   0  0  0  0  0  0  0  0  0  0  0  0
   -0.1810    1.1920    0.0000 N   0  0  0  0  0  0  0  0  0  0  0  0
   -1.3880    0.3020    0.0000 C   0  0  0  0  0  0  0  0  0  0  0  0
   -1.5350   -1.1910    0.0000 C   0  0  0  0  0  0  0  0  0  0  0  0
    1.2490    0.7390    0.0000 C   0  0  0  0  0  0  0  0  0  0  0  0
    2.6780    0.2850    0.0000 C   0  0  0  0  0  0  0  0  0  0  0  0
    3.0000   -1.1800    0.0000 C   0  0  0  0  0  0  0  0  0  0  0  0
    4.4300   -1.6340    0.0000 C   0  0  0  0  0  0  0  0  0  0  0  0
    5.5380   -0.6230    0.0000 C   0  0  0  0  0  0  0  0  0  0  0  0
    5.2160    0.8420    0.0000 C   0  0  0  0  0  0  0  0  0  0  0  0
    3.7860    1.2960    0.0000 C   0  0  0  0  0  0  0  0  0  0  0  0
    0.2190    3.8350    0.0000 O   0  0  0  0  0  0  0  0  0  0  0  0
   -5.1940    1.4290    0.0000 N   0  0  0  0  0  0  0  0  0  0  0  0
   -3.0440    3.8130    0.0000 H   0  0  0  0  0  0  0  0  0  0  0  0
   -0.3150   -2.0640    0.0000 H   0  0  0  0  0  0  0  0  0  0  0  0
    0.7950   -0.6910    0.0000 H   0  0  0  0  0  0  0  0  0  0  0  0
    1.7020    2.1680    0.0000 H   0  0  0  0  0  0  0  0  0  0  0  0
    1.8930   -2.1920    0.0000 H   0  0  0  0  0  0  0  0  0  0  0  0
    4.7520   -3.0990    0.0000 H   0  0  0  0  0  0  0  0  0  0  0  0
    6.9680   -1.0760    0.0000 H   0  0  0  0  0  0  0  0  0  0  0  0
    6.3240    1.8540    0.0000 H   0  0  0  0  0  0  0  0  0  0  0  0
    3.4640    2.7610    0.0000 H   0  0  0  0  0  0  0  0  0  0  0  0
   -6.5600    0.8100    0.0000 H   0  0  0  0  0  0  0  0  0  0  0  0
   -5.0470    2.9220    0.0000 H   0  0  0  0  0  0  0  0  0  0  0  0
  1  2  1  0  0  0  0
  2  3  1  0  0  0  0
  2  4  1  0  0  0  0
  2  5  1  0  0  0  0
  5  6  2  0  0  0  0
  5 13  1  0  0  0  0
  6  7  1  0  0  0  0
  7  8  2  0  0  0  0
  7 22  1  0  0  0  0
  8  9  1  0  0  0  0
  8 12  1  0  0  0  0
  9 10  1  0  0  0  0
  9 23  1  0  0  0  0
 10 11  1  0  0  0  0
 10 21  2  0  0  0  0
 11 12  1  0  0  0  0
 11 14  1  0  0  0  0
 12 13  2  0  0  0  0
 13 24  1  0  0  0  0
 14 15  1  0  0  0  0
 14 25  1  0  0  0  0
 14 26  1  0  0  0  0
 15 16  2  0  0  0  0
 15 20  1  0  0  0  0
 16 17  1  0  0  0  0
 16 27  1  0  0  0  0
 17 18  2  0  0  0  0
 17 28  1  0  0  0  0
 18 19  1  0  0  0  0
 18 29  1  0  0  0  0
 19 20  2  0  0  0  0
 19 30  1  0  0  0  0
 20 31  1  0  0  0  0
 22 32  1  0  0  0  0
 22 33  1  0  0  0  0
M  END
$$$$
