2D_structures\o48_MMV019724_2D.pdb
 OpenBabel02282413353D

 49 53  0  0  1  0  0  0  0  0999 V2000
   -1.8960    0.4000    0.0000 S   0  0  0  0  0  0  0  0  0  0  0  0
   -0.7430    1.3590    0.0000 C   0  0  0  0  0  0  0  0  0  0  0  0
   -1.2990    2.7520    0.0000 N   0  0  0  0  0  0  0  0  0  0  0  0
   -2.7950    2.6540    0.0000 C   0  0  0  0  0  0  0  0  0  0  0  0
   -3.1650    1.2010    0.0000 C   0  0  0  0  0  0  0  0  0  0  0  0
   -4.6090    0.7940    0.0000 C   0  0  0  0  0  0  0  0  0  0  0  0
   -5.6830    1.8410    0.0000 C   0  0  0  0  0  0  0  0  0  0  0  0
   -5.3130    3.2940    0.0000 C   0  0  0  0  0  0  0  0  0  0  0  0
   -3.8700    3.7010    0.0000 C   0  0  0  0  0  0  0  0  0  0  0  0
    0.7110    0.9890    0.0000 N   0  0  0  0  0  0  0  0  0  0  0  0
    1.1180   -0.4540    0.0000 C   0  0  1  0  0  0  0  0  0  0  0  0
    2.5610   -0.0480    0.0000 C   0  0  0  0  0  0  0  0  0  0  0  0
    3.6360   -1.0940    0.0000 C   0  0  0  0  0  0  0  0  0  0  0  0
    3.2660   -2.5480    0.0000 O   0  0  0  0  0  0  0  0  0  0  0  0
    5.0790   -0.6880    0.0000 C   0  0  0  0  0  0  0  0  0  0  0  0
    6.1540   -1.7340    0.0000 N   0  0  0  0  0  0  0  0  0  0  0  0
    7.5970   -1.3280    0.0000 C   0  0  0  0  0  0  0  0  0  0  0  0
    7.9670    0.1260    0.0000 C   0  0  0  0  0  0  0  0  0  0  0  0
    6.8930    1.1730    0.0000 C   0  0  0  0  0  0  0  0  0  0  0  0
    5.4490    0.7660    0.0000 C   0  0  0  0  0  0  0  0  0  0  0  0
    4.3750    1.8130    0.0000 C   0  0  0  0  0  0  0  0  0  0  0  0
    2.9310    1.4060    0.0000 C   0  0  0  0  0  0  0  0  0  0  0  0
   -0.3260   -0.8610    0.0000 C   0  0  0  0  0  0  0  0  0  0  0  0
   -1.4000    0.1860    0.0000 C   0  0  0  0  0  0  0  0  0  0  0  0
   -2.8440   -0.2210    0.0000 C   0  0  0  0  0  0  0  0  0  0  0  0
   -3.2140   -1.6750    0.0000 C   0  0  0  0  0  0  0  0  0  0  0  0
   -4.6570   -2.0820    0.0000 O   0  0  0  0  0  0  0  0  0  0  0  0
   -5.0270   -3.5360    0.0000 C   0  0  0  0  0  0  0  0  0  0  0  0
   -5.3960   -4.9900    0.0000 F   0  0  0  0  0  0  0  0  0  0  0  0
   -6.4810   -3.1660    0.0000 F   0  0  0  0  0  0  0  0  0  0  0  0
   -2.1390   -2.7220    0.0000 C   0  0  0  0  0  0  0  0  0  0  0  0
   -0.6960   -2.3150    0.0000 C   0  0  0  0  0  0  0  0  0  0  0  0
   -4.9780   -0.6600    0.0000 H   0  0  0  0  0  0  0  0  0  0  0  0
   -7.1270    1.4340    0.0000 H   0  0  0  0  0  0  0  0  0  0  0  0
   -6.3880    4.3410    0.0000 H   0  0  0  0  0  0  0  0  0  0  0  0
   -3.5000    5.1550    0.0000 H   0  0  0  0  0  0  0  0  0  0  0  0
    1.6190    2.1830    0.0000 H   0  0  0  0  0  0  0  0  0  0  0  0
    1.5250   -1.8980    0.0000 H   0  0  0  0  0  0  0  0  0  0  0  0
    1.8220   -2.9550    0.0000 H   0  0  0  0  0  0  0  0  0  0  0  0
    8.6720   -2.3740    0.0000 H   0  0  0  0  0  0  0  0  0  0  0  0
    9.4110    0.5330    0.0000 H   0  0  0  0  0  0  0  0  0  0  0  0
    7.2620    2.6270    0.0000 H   0  0  0  0  0  0  0  0  0  0  0  0
    4.7440    3.2670    0.0000 H   0  0  0  0  0  0  0  0  0  0  0  0
    1.9920    2.5760    0.0000 H   0  0  0  0  0  0  0  0  0  0  0  0
   -1.3940    1.6860    0.0000 H   0  0  0  0  0  0  0  0  0  0  0  0
   -4.1400    0.5350    0.0000 H   0  0  0  0  0  0  0  0  0  0  0  0
   -3.5730   -3.9050    0.0000 H   0  0  0  0  0  0  0  0  0  0  0  0
   -2.5090   -4.1760    0.0000 H   0  0  0  0  0  0  0  0  0  0  0  0
    0.3790   -3.3620    0.0000 H   0  0  0  0  0  0  0  0  0  0  0  0
  1  2  1  0  0  0  0
  1  5  1  0  0  0  0
  2  3  2  0  0  0  0
  2 10  1  0  0  0  0
  3  4  1  0  0  0  0
  4  5  2  0  0  0  0
  4  9  1  0  0  0  0
  5  6  1  0  0  0  0
  6  7  2  0  0  0  0
  6 33  1  0  0  0  0
  7  8  1  0  0  0  0
  7 34  1  0  0  0  0
  8  9  2  0  0  0  0
  8 35  1  0  0  0  0
  9 36  1  0  0  0  0
 10 11  1  0  0  0  0
 10 37  1  0  0  0  0
 11 12  1  0  0  0  0
 11 23  1  0  0  0  0
 11 38  1  6  0  0  0
 12 13  2  0  0  0  0
 12 22  1  0  0  0  0
 13 14  1  0  0  0  0
 13 15  1  0  0  0  0
 14 39  1  0  0  0  0
 15 16  2  0  0  0  0
 15 20  1  0  0  0  0
 16 17  1  0  0  0  0
 17 18  2  0  0  0  0
 17 40  1  0  0  0  0
 18 19  1  0  0  0  0
 18 41  1  0  0  0  0
 19 20  2  0  0  0  0
 19 42  1  0  0  0  0
 20 21  1  0  0  0  0
 21 22  2  0  0  0  0
 21 43  1  0  0  0  0
 22 44  1  0  0  0  0
 23 24  2  0  0  0  0
 23 32  1  0  0  0  0
 24 25  1  0  0  0  0
 24 45  1  0  0  0  0
 25 26  2  0  0  0  0
 25 46  1  0  0  0  0
 26 27  1  0  0  0  0
 26 31  1  0  0  0  0
 27 28  1  0  0  0  0
 28 29  1  0  0  0  0
 28 30  1  0  0  0  0
 28 47  1  0  0  0  0
 31 32  2  0  0  0  0
 31 48  1  0  0  0  0
 32 49  1  0  0  0  0
M  END
$$$$
