2D_structures\o52_MMV1580500_2D.pdb
 OpenBabel02282413353D

 28 30  0  0  0  0  0  0  0  0999 V2000
   -0.2820   -3.2320    0.0000 O   0  0  0  0  0  0  0  0  0  0  0  0
   -0.0880   -1.7440    0.0000 C   0  0  0  0  0  0  0  0  0  0  0  0
   -1.2790   -0.8320    0.0000 C   0  0  0  0  0  0  0  0  0  0  0  0
   -2.6640   -1.4080    0.0000 C   0  0  0  0  0  0  0  0  0  0  0  0
   -2.8580   -2.8950    0.0000 O   0  0  0  0  0  0  0  0  0  0  0  0
   -3.8550   -0.4960    0.0000 C   0  0  0  0  0  0  0  0  0  0  0  0
   -3.6600    0.9920    0.0000 C   0  0  0  0  0  0  0  0  0  0  0  0
   -2.2750    1.5670    0.0000 C   0  0  0  0  0  0  0  0  0  0  0  0
   -1.0840    0.6550    0.0000 C   0  0  0  0  0  0  0  0  0  0  0  0
    0.3010    1.2300    0.0000 N   0  0  0  0  0  0  0  0  0  0  0  0
    0.4960    2.7180    0.0000 C   0  0  0  0  0  0  0  0  0  0  0  0
    1.4920    0.3180    0.0000 C   0  0  0  0  0  0  0  0  0  0  0  0
    1.2980   -1.1690    0.0000 C   0  0  0  0  0  0  0  0  0  0  0  0
    2.4890   -2.0810    0.0000 C   0  0  0  0  0  0  0  0  0  0  0  0
    3.8740   -1.5060    0.0000 C   0  0  0  0  0  0  0  0  0  0  0  0
    4.0680   -0.0190    0.0000 C   0  0  0  0  0  0  0  0  0  0  0  0
    2.8770    0.8940    0.0000 C   0  0  0  0  0  0  0  0  0  0  0  0
   -4.2440   -3.4700    0.0000 H   0  0  0  0  0  0  0  0  0  0  0  0
   -5.2400   -1.0710    0.0000 H   0  0  0  0  0  0  0  0  0  0  0  0
   -4.8510    1.9040    0.0000 H   0  0  0  0  0  0  0  0  0  0  0  0
   -2.0810    3.0540    0.0000 H   0  0  0  0  0  0  0  0  0  0  0  0
    0.6900    4.2050    0.0000 H   0  0  0  0  0  0  0  0  0  0  0  0
    1.9830    2.5230    0.0000 H   0  0  0  0  0  0  0  0  0  0  0  0
   -0.9920    2.9120    0.0000 H   0  0  0  0  0  0  0  0  0  0  0  0
    2.2940   -3.5690    0.0000 H   0  0  0  0  0  0  0  0  0  0  0  0
    5.0650   -2.4180    0.0000 H   0  0  0  0  0  0  0  0  0  0  0  0
    5.4540    0.5570    0.0000 H   0  0  0  0  0  0  0  0  0  0  0  0
    3.0720    2.3810    0.0000 H   0  0  0  0  0  0  0  0  0  0  0  0
  1  2  2  0  0  0  0
  2  3  1  0  0  0  0
  2 13  1  0  0  0  0
  3  4  2  0  0  0  0
  3  9  1  0  0  0  0
  4  5  1  0  0  0  0
  4  6  1  0  0  0  0
  5 18  1  0  0  0  0
  6  7  2  0  0  0  0
  6 19  1  0  0  0  0
  7  8  1  0  0  0  0
  7 20  1  0  0  0  0
  8  9  2  0  0  0  0
  8 21  1  0  0  0  0
  9 10  1  0  0  0  0
 10 11  1  0  0  0  0
 10 12  1  0  0  0  0
 11 22  1  0  0  0  0
 11 23  1  0  0  0  0
 11 24  1  0  0  0  0
 12 13  2  0  0  0  0
 12 17  1  0  0  0  0
 13 14  1  0  0  0  0
 14 15  2  0  0  0  0
 14 25  1  0  0  0  0
 15 16  1  0  0  0  0
 15 26  1  0  0  0  0
 16 17  2  0  0  0  0
 16 27  1  0  0  0  0
 17 28  1  0  0  0  0
M  END
$$$$
