2D_structures\o53_MMV1580498_2D.pdb
 OpenBabel02282413353D

 57 60  0  0  1  0  0  0  0  0999 V2000
  -11.7350   -2.6010    0.0000 F   0  0  0  0  0  0  0  0  0  0  0  0
  -10.5740   -1.6510    0.0000 C   0  0  0  0  0  0  0  0  0  0  0  0
  -11.5240   -0.4900    0.0000 F   0  0  0  0  0  0  0  0  0  0  0  0
   -9.6240   -2.8120    0.0000 F   0  0  0  0  0  0  0  0  0  0  0  0
   -9.4140   -0.7010    0.0000 C   0  0  0  0  0  0  0  0  0  0  0  0
   -9.6560    0.7800    0.0000 N   0  0  0  0  0  0  0  0  0  0  0  0
   -8.4950    1.7300    0.0000 C   0  0  0  0  0  0  0  0  0  0  0  0
   -7.0920    1.2000    0.0000 C   0  0  0  0  0  0  0  0  0  0  0  0
   -5.9320    2.1500    0.0000 N   0  0  0  0  0  0  0  0  0  0  0  0
   -4.5280    1.6200    0.0000 C   0  0  0  0  0  0  0  0  0  0  0  0
   -4.2860    0.1390    0.0000 C   0  0  0  0  0  0  0  0  0  0  0  0
   -2.8830   -0.3910    0.0000 N   0  0  0  0  0  0  0  0  0  0  0  0
   -1.7220    0.5590    0.0000 C   0  0  0  0  0  0  0  0  0  0  0  0
   -0.3190    0.0290    0.0000 C   0  0  0  0  0  0  0  0  0  0  0  0
   -0.0760   -1.4510    0.0000 C   0  0  0  0  0  0  0  0  0  0  0  0
    1.3270   -1.9810    0.0000 C   0  0  0  0  0  0  0  0  0  0  0  0
    2.4880   -1.0310    0.0000 C   0  0  0  0  0  0  0  0  0  0  0  0
    3.8910   -1.5610    0.0000 C   0  0  1  0  0  0  0  0  0  0  0  0
    4.1690   -0.0870    0.0000 C   0  0  0  0  0  0  0  0  0  0  0  0
    5.5850    0.4090    0.0000 C   0  0  0  0  0  0  0  0  0  0  0  0
    6.7220   -0.5690    0.0000 C   0  0  1  0  0  0  0  0  0  0  0  0
    7.4880    0.7210    0.0000 C   0  0  0  0  0  0  0  0  0  0  0  0
    8.2540    2.0110    0.0000 C   0  0  0  0  0  0  0  0  0  0  0  0
    7.5190    3.3190    0.0000 O   0  0  0  0  0  0  0  0  0  0  0  0
    9.7540    1.9920    0.0000 O   0  0  0  0  0  0  0  0  0  0  0  0
    6.4440   -2.0430    0.0000 C   0  0  0  0  0  0  0  0  0  0  0  0
    5.0280   -2.5390    0.0000 C   0  0  0  0  0  0  0  0  0  0  0  0
    2.2450    0.4490    0.0000 C   0  0  0  0  0  0  0  0  0  0  0  0
    0.8420    0.9800    0.0000 C   0  0  0  0  0  0  0  0  0  0  0  0
   -1.9640    2.0400    0.0000 C   0  0  0  0  0  0  0  0  0  0  0  0
   -3.3680    2.5700    0.0000 C   0  0  0  0  0  0  0  0  0  0  0  0
   -6.8500   -0.2810    0.0000 C   0  0  0  0  0  0  0  0  0  0  0  0
   -8.0100   -1.2310    0.0000 C   0  0  0  0  0  0  0  0  0  0  0  0
   -8.7380    3.2100    0.0000 H   0  0  0  0  0  0  0  0  0  0  0  0
   -6.1740    3.6300    0.0000 H   0  0  0  0  0  0  0  0  0  0  0  0
   -5.3220   -0.9450    0.0000 H   0  0  0  0  0  0  0  0  0  0  0  0
   -1.2370   -2.4010    0.0000 H   0  0  0  0  0  0  0  0  0  0  0  0
    1.5700   -3.4610    0.0000 H   0  0  0  0  0  0  0  0  0  0  0  0
    3.1250   -2.8510    0.0000 H   0  0  0  0  0  0  0  0  0  0  0  0
    4.1200    1.1270    0.0000 H   0  0  0  0  0  0  0  0  0  0  0  0
    3.1120    0.1900    0.0000 H   0  0  0  0  0  0  0  0  0  0  0  0
    6.1360    0.9850    0.0000 H   0  0  0  0  0  0  0  0  0  0  0  0
    4.9900    1.4680    0.0000 H   0  0  0  0  0  0  0  0  0  0  0  0
    8.1250   -1.0990    0.0000 H   0  0  0  0  0  0  0  0  0  0  0  0
    6.8570    1.2080    0.0000 H   0  0  0  0  0  0  0  0  0  0  0  0
    8.7780   -0.0450    0.0000 H   0  0  0  0  0  0  0  0  0  0  0  0
   10.5190    3.2820    0.0000 H   0  0  0  0  0  0  0  0  0  0  0  0
    6.6860   -3.5230    0.0000 H   0  0  0  0  0  0  0  0  0  0  0  0
    7.9440   -2.0610    0.0000 H   0  0  0  0  0  0  0  0  0  0  0  0
    3.8670   -3.4890    0.0000 H   0  0  0  0  0  0  0  0  0  0  0  0
    5.7620   -3.8470    0.0000 H   0  0  0  0  0  0  0  0  0  0  0  0
    3.2810    1.5340    0.0000 H   0  0  0  0  0  0  0  0  0  0  0  0
    0.5990    2.4600    0.0000 H   0  0  0  0  0  0  0  0  0  0  0  0
   -0.8040    2.9900    0.0000 H   0  0  0  0  0  0  0  0  0  0  0  0
   -3.6100    4.0500    0.0000 H   0  0  0  0  0  0  0  0  0  0  0  0
   -5.5220   -0.9780    0.0000 H   0  0  0  0  0  0  0  0  0  0  0  0
   -7.7680   -2.7110    0.0000 H   0  0  0  0  0  0  0  0  0  0  0  0
  1  2  1  0  0  0  0
  2  3  1  0  0  0  0
  2  4  1  0  0  0  0
  2  5  1  0  0  0  0
  5  6  2  0  0  0  0
  5 33  1  0  0  0  0
  6  7  1  0  0  0  0
  7  8  2  0  0  0  0
  7 34  1  0  0  0  0
  8  9  1  0  0  0  0
  8 32  1  0  0  0  0
  9 10  1  0  0  0  0
  9 35  1  0  0  0  0
 10 11  2  0  0  0  0
 10 31  1  0  0  0  0
 11 12  1  0  0  0  0
 11 36  1  0  0  0  0
 12 13  2  0  0  0  0
 13 14  1  0  0  0  0
 13 30  1  0  0  0  0
 14 15  2  0  0  0  0
 14 29  1  0  0  0  0
 15 16  1  0  0  0  0
 15 37  1  0  0  0  0
 16 17  2  0  0  0  0
 16 38  1  0  0  0  0
 17 18  1  0  0  0  0
 17 28  1  0  0  0  0
 18 19  1  0  0  0  0
 18 27  1  0  0  0  0
 18 39  1  6  0  0  0
 19 20  1  0  0  0  0
 19 40  1  0  0  0  0
 19 41  1  0  0  0  0
 20 21  1  0  0  0  0
 20 42  1  0  0  0  0
 20 43  1  0  0  0  0
 21 22  1  0  0  0  0
 21 26  1  0  0  0  0
 21 44  1  6  0  0  0
 22 23  1  0  0  0  0
 22 45  1  0  0  0  0
 22 46  1  0  0  0  0
 23 24  2  0  0  0  0
 23 25  1  0  0  0  0
 25 47  1  0  0  0  0
 26 27  1  0  0  0  0
 26 48  1  0  0  0  0
 26 49  1  0  0  0  0
 27 50  1  0  0  0  0
 27 51  1  0  0  0  0
 28 29  2  0  0  0  0
 28 52  1  0  0  0  0
 29 53  1  0  0  0  0
 30 31  2  0  0  0  0
 30 54  1  0  0  0  0
 31 55  1  0  0  0  0
 32 33  2  0  0  0  0
 32 56  1  0  0  0  0
 33 57  1  0  0  0  0
M  END
$$$$
