2D_structures\o58_MMV1782220_2D.pdb
 OpenBabel02282413353D

 65 69  0  0  1  0  0  0  0  0999 V2000
   -2.9150    4.9660    0.0000 C   0  0  0  0  0  0  0  0  0  0  0  0
   -4.2710    4.3250    0.0000 C   0  0  0  0  0  0  0  0  0  0  0  0
   -5.6270    3.6830    0.0000 C   0  0  0  0  0  0  0  0  0  0  0  0
   -3.6290    2.9690    0.0000 C   0  0  0  0  0  0  0  0  0  0  0  0
   -2.9880    1.6130    0.0000 C   0  0  0  0  0  0  0  0  0  0  0  0
   -2.3460    0.2570    0.0000 N   0  0  0  0  0  0  0  0  0  0  0  0
   -3.2000   -0.9770    0.0000 C   0  0  1  0  0  0  0  0  0  0  0  0
   -4.6870   -1.1680    0.0000 C   0  0  1  0  0  0  0  0  0  0  0  0
   -5.7790   -2.1970    0.0000 C   0  0  0  0  0  0  0  0  0  0  0  0
   -5.1370   -3.5530    0.0000 C   0  0  0  0  0  0  0  0  0  0  0  0
   -3.6490   -3.3620    0.0000 C   0  0  1  0  0  0  0  0  0  0  0  0
   -4.9650   -2.6420    0.0000 C   0  0  0  0  0  0  0  0  0  0  0  0
   -2.5580   -2.3320    0.0000 C   0  0  1  0  0  0  0  0  0  0  0  0
   -1.0630   -2.4550    0.0000 C   0  0  0  0  0  0  0  0  0  0  0  0
   -0.2100   -1.2210    0.0000 C   0  0  0  0  0  0  0  0  0  0  0  0
   -0.8510    0.1350    0.0000 C   0  0  0  0  0  0  0  0  0  0  0  0
    0.0020    1.3680    0.0000 O   0  0  0  0  0  0  0  0  0  0  0  0
    1.2850   -1.3430    0.0000 C   0  0  0  0  0  0  0  0  0  0  0  0
    1.9270   -2.6990    0.0000 N   0  0  0  0  0  0  0  0  0  0  0  0
    3.4220   -2.8220    0.0000 S   0  0  0  0  0  0  0  0  0  0  0  0
    4.7850   -3.4480    0.0000 O   0  0  0  0  0  0  0  0  0  0  0  0
    3.0420   -4.2730    0.0000 O   0  0  0  0  0  0  0  0  0  0  0  0
    4.2750   -1.5880    0.0000 C   0  0  0  0  0  0  0  0  0  0  0  0
    5.7700   -1.7100    0.0000 C   0  0  0  0  0  0  0  0  0  0  0  0
    6.6240   -0.4770    0.0000 C   0  0  0  0  0  0  0  0  0  0  0  0
    8.1190   -0.5990    0.0000 N   0  0  0  0  0  0  0  0  0  0  0  0
    8.9720    0.6350    0.0000 S   0  0  0  0  0  0  0  0  0  0  0  0
    7.7390    1.4880    0.0000 O   0  0  0  0  0  0  0  0  0  0  0  0
   10.2060   -0.2190    0.0000 O   0  0  0  0  0  0  0  0  0  0  0  0
    9.8260    1.8680    0.0000 C   0  0  0  0  0  0  0  0  0  0  0  0
    5.9820    0.8790    0.0000 C   0  0  0  0  0  0  0  0  0  0  0  0
    4.4870    1.0010    0.0000 C   0  0  0  0  0  0  0  0  0  0  0  0
    3.6340   -0.2320    0.0000 C   0  0  0  0  0  0  0  0  0  0  0  0
    2.1390   -0.1100    0.0000 N   0  0  0  0  0  0  0  0  0  0  0  0
   -0.4210   -3.8110    0.0000 O   0  0  0  0  0  0  0  0  0  0  0  0
   -1.5590    5.6080    0.0000 H   0  0  0  0  0  0  0  0  0  0  0  0
   -3.5570    6.3220    0.0000 H   0  0  0  0  0  0  0  0  0  0  0  0
   -2.4410    4.2180    0.0000 H   0  0  0  0  0  0  0  0  0  0  0  0
   -4.9130    5.6800    0.0000 H   0  0  0  0  0  0  0  0  0  0  0  0
   -6.9830    3.0410    0.0000 H   0  0  0  0  0  0  0  0  0  0  0  0
   -5.3480    2.8420    0.0000 H   0  0  0  0  0  0  0  0  0  0  0  0
   -6.2680    5.0390    0.0000 H   0  0  0  0  0  0  0  0  0  0  0  0
   -4.3780    2.4950    0.0000 H   0  0  0  0  0  0  0  0  0  0  0  0
   -2.7890    3.2470    0.0000 H   0  0  0  0  0  0  0  0  0  0  0  0
   -4.4120    1.1410    0.0000 H   0  0  0  0  0  0  0  0  0  0  0  0
   -1.6320    2.2540    0.0000 H   0  0  0  0  0  0  0  0  0  0  0  0
   -4.1300    0.2000    0.0000 H   0  0  0  0  0  0  0  0  0  0  0  0
   -5.7170   -0.0770    0.0000 H   0  0  0  0  0  0  0  0  0  0  0  0
   -6.6880   -1.0040    0.0000 H   0  0  0  0  0  0  0  0  0  0  0  0
   -7.0600   -2.9770    0.0000 H   0  0  0  0  0  0  0  0  0  0  0  0
   -6.5530   -4.0490    0.0000 H   0  0  0  0  0  0  0  0  0  0  0  0
   -4.7910   -5.0120    0.0000 H   0  0  0  0  0  0  0  0  0  0  0  0
   -3.4580   -4.8490    0.0000 H   0  0  0  0  0  0  0  0  0  0  0  0
   -5.4940   -3.3520    0.0000 H   0  0  0  0  0  0  0  0  0  0  0  0
   -6.4640   -2.5720    0.0000 H   0  0  0  0  0  0  0  0  0  0  0  0
   -2.0620   -3.7480    0.0000 H   0  0  0  0  0  0  0  0  0  0  0  0
    6.4120   -3.0660    0.0000 H   0  0  0  0  0  0  0  0  0  0  0  0
    8.7600   -1.9550    0.0000 H   0  0  0  0  0  0  0  0  0  0  0  0
   10.6790    3.1020    0.0000 H   0  0  0  0  0  0  0  0  0  0  0  0
   11.0590    1.0150    0.0000 H   0  0  0  0  0  0  0  0  0  0  0  0
    8.5920    2.7220    0.0000 H   0  0  0  0  0  0  0  0  0  0  0  0
    6.8360    2.1130    0.0000 H   0  0  0  0  0  0  0  0  0  0  0  0
    3.8460    2.3570    0.0000 H   0  0  0  0  0  0  0  0  0  0  0  0
    1.4970    1.2460    0.0000 H   0  0  0  0  0  0  0  0  0  0  0  0
    1.0740   -3.9330    0.0000 H   0  0  0  0  0  0  0  0  0  0  0  0
  1  2  1  0  0  0  0
  1 36  1  0  0  0  0
  1 37  1  0  0  0  0
  1 38  1  0  0  0  0
  2  3  1  0  0  0  0
  2  4  1  0  0  0  0
  2 39  1  0  0  0  0
  3 40  1  0  0  0  0
  3 41  1  0  0  0  0
  3 42  1  0  0  0  0
  4  5  1  0  0  0  0
  4 43  1  0  0  0  0
  4 44  1  0  0  0  0
  5  6  1  0  0  0  0
  5 45  1  0  0  0  0
  5 46  1  0  0  0  0
  6  7  1  0  0  0  0
  6 16  1  0  0  0  0
  7  8  1  0  0  0  0
  7 13  1  0  0  0  0
  7 47  1  1  0  0  0
  8  9  1  0  0  0  0
  8 12  1  0  0  0  0
  8 48  1  1  0  0  0
  9 10  1  0  0  0  0
  9 49  1  0  0  0  0
  9 50  1  0  0  0  0
 10 11  1  0  0  0  0
 10 51  1  0  0  0  0
 10 52  1  0  0  0  0
 11 12  1  0  0  0  0
 11 13  1  0  0  0  0
 11 53  1  6  0  0  0
 12 54  1  0  0  0  0
 12 55  1  0  0  0  0
 13 14  1  0  0  0  0
 13 56  1  1  0  0  0
 14 15  2  0  0  0  0
 14 35  1  0  0  0  0
 15 16  1  0  0  0  0
 15 18  1  0  0  0  0
 16 17  2  0  0  0  0
 18 19  2  0  0  0  0
 18 34  1  0  0  0  0
 19 20  1  0  0  0  0
 20 21  2  0  0  0  0
 20 22  2  0  0  0  0
 20 23  1  0  0  0  0
 23 24  2  0  0  0  0
 23 33  1  0  0  0  0
 24 25  1  0  0  0  0
 24 57  1  0  0  0  0
 25 26  1  0  0  0  0
 25 31  2  0  0  0  0
 26 27  1  0  0  0  0
 26 58  1  0  0  0  0
 27 28  2  0  0  0  0
 27 29  2  0  0  0  0
 27 30  1  0  0  0  0
 30 59  1  0  0  0  0
 30 60  1  0  0  0  0
 30 61  1  0  0  0  0
 31 32  1  0  0  0  0
 31 62  1  0  0  0  0
 32 33  2  0  0  0  0
 32 63  1  0  0  0  0
 33 34  1  0  0  0  0
 34 64  1  0  0  0  0
 35 65  1  0  0  0  0
M  END
$$$$
