2D_structures\o67_MMV1782355_2D.pdb
 OpenBabel02282413353D

 29 31  0  0  0  0  0  0  0  0999 V2000
    3.6230   -2.9710    0.0000 N   0  0  0  0  0  0  0  0  0  0  0  0
    3.2860   -1.5090    0.0000 C   0  0  0  0  0  0  0  0  0  0  0  0
    1.8510   -1.0710    0.0000 N   0  0  0  0  0  0  0  0  0  0  0  0
    1.5140    0.3910    0.0000 C   0  0  0  0  0  0  0  0  0  0  0  0
    0.2020    1.1180    0.0000 C   0  0  0  0  0  0  0  0  0  0  0  0
   -1.1570    0.4840    0.0000 C   0  0  0  0  0  0  0  0  0  0  0  0
   -2.5170   -0.1500    0.0000 C   0  0  0  0  0  0  0  0  0  0  0  0
   -3.7460    0.7110    0.0000 C   0  0  0  0  0  0  0  0  0  0  0  0
   -5.1050    0.0770    0.0000 C   0  0  0  0  0  0  0  0  0  0  0  0
   -5.2360   -1.4180    0.0000 C   0  0  0  0  0  0  0  0  0  0  0  0
   -4.0070   -2.2780    0.0000 N   0  0  0  0  0  0  0  0  0  0  0  0
   -2.6480   -1.6440    0.0000 C   0  0  0  0  0  0  0  0  0  0  0  0
    0.4880    2.5900    0.0000 C   0  0  0  0  0  0  0  0  0  0  0  0
    1.9770    2.7730    0.0000 N   0  0  0  0  0  0  0  0  0  0  0  0
    2.6110    1.4140    0.0000 C   0  0  0  0  0  0  0  0  0  0  0  0
    4.0450    0.9750    0.0000 C   0  0  0  0  0  0  0  0  0  0  0  0
    5.1420    1.9980    0.0000 O   0  0  0  0  0  0  0  0  0  0  0  0
    4.3830   -0.4870    0.0000 N   0  0  0  0  0  0  0  0  0  0  0  0
    2.5260   -3.9940    0.0000 H   0  0  0  0  0  0  0  0  0  0  0  0
    5.0580   -3.4100    0.0000 H   0  0  0  0  0  0  0  0  0  0  0  0
   -1.7910    1.8440    0.0000 H   0  0  0  0  0  0  0  0  0  0  0  0
   -0.5240   -0.8750    0.0000 H   0  0  0  0  0  0  0  0  0  0  0  0
   -3.6150    2.2050    0.0000 H   0  0  0  0  0  0  0  0  0  0  0  0
   -6.3340    0.9370    0.0000 H   0  0  0  0  0  0  0  0  0  0  0  0
   -6.5950   -2.0520    0.0000 H   0  0  0  0  0  0  0  0  0  0  0  0
   -1.4190   -2.5050    0.0000 H   0  0  0  0  0  0  0  0  0  0  0  0
   -0.5350    3.6870    0.0000 H   0  0  0  0  0  0  0  0  0  0  0  0
    2.7040    4.0850    0.0000 H   0  0  0  0  0  0  0  0  0  0  0  0
    5.8170   -0.9250    0.0000 H   0  0  0  0  0  0  0  0  0  0  0  0
  1  2  1  0  0  0  0
  1 19  1  0  0  0  0
  1 20  1  0  0  0  0
  2  3  2  0  0  0  0
  2 18  1  0  0  0  0
  3  4  1  0  0  0  0
  4  5  1  0  0  0  0
  4 15  2  0  0  0  0
  5  6  1  0  0  0  0
  5 13  2  0  0  0  0
  6  7  1  0  0  0  0
  6 21  1  0  0  0  0
  6 22  1  0  0  0  0
  7  8  2  0  0  0  0
  7 12  1  0  0  0  0
  8  9  1  0  0  0  0
  8 23  1  0  0  0  0
  9 10  2  0  0  0  0
  9 24  1  0  0  0  0
 10 11  1  0  0  0  0
 10 25  1  0  0  0  0
 11 12  2  0  0  0  0
 12 26  1  0  0  0  0
 13 14  1  0  0  0  0
 13 27  1  0  0  0  0
 14 15  1  0  0  0  0
 14 28  1  0  0  0  0
 15 16  1  0  0  0  0
 16 17  2  0  0  0  0
 16 18  1  0  0  0  0
 18 29  1  0  0  0  0
M  END
$$$$
