2D_structures\o76_MMV1634361_2D.pdb
 OpenBabel02282413353D

 20 20  0  0  1  0  0  0  0  0999 V2000
    2.2640    0.9560    0.0000 O   0  0  0  0  0  0  0  0  0  0  0  0
    1.9420   -0.2160    0.0000 C   0  0  0  0  0  0  0  0  0  0  0  0
    3.1190   -1.1460    0.0000 O   0  0  0  0  0  0  0  0  0  0  0  0
    0.5480   -0.7690    0.0000 C   0  0  1  0  0  0  0  0  0  0  0  0
    0.1430    0.6750    0.0000 C   0  0  1  0  0  0  0  0  0  0  0  0
    0.0480    2.1720    0.0000 N   0  0  0  0  0  0  0  0  0  0  0  0
   -1.3550    0.7360    0.0000 C   0  0  0  0  0  0  0  0  0  0  0  0
   -1.8770   -0.6700    0.0000 C   0  0  0  0  0  0  0  0  0  0  0  0
   -0.7000   -1.6010    0.0000 C   0  0  0  0  0  0  0  0  0  0  0  0
    4.5130   -0.5930    0.0000 H   0  0  0  0  0  0  0  0  0  0  0  0
    1.2450   -2.0980    0.0000 H   0  0  0  0  0  0  0  0  0  0  0  0
    1.3070    1.0230    0.0000 H   0  0  0  0  0  0  0  0  0  0  0  0
    1.2960    3.0030    0.0000 H   0  0  0  0  0  0  0  0  0  0  0  0
   -0.9670    2.8400    0.0000 H   0  0  0  0  0  0  0  0  0  0  0  0
   -2.8090    1.1080    0.0000 H   0  0  0  0  0  0  0  0  0  0  0  0
   -1.3270    1.9510    0.0000 H   0  0  0  0  0  0  0  0  0  0  0  0
   -2.6790   -1.9370    0.0000 H   0  0  0  0  0  0  0  0  0  0  0  0
   -3.2210   -0.0050    0.0000 H   0  0  0  0  0  0  0  0  0  0  0  0
    0.2570   -2.7560    0.0000 H   0  0  0  0  0  0  0  0  0  0  0  0
   -1.7490   -2.6730    0.0000 H   0  0  0  0  0  0  0  0  0  0  0  0
  1  2  2  0  0  0  0
  2  3  1  0  0  0  0
  2  4  1  0  0  0  0
  3 10  1  0  0  0  0
  4  5  1  0  0  0  0
  4  9  1  0  0  0  0
  4 11  1  1  0  0  0
  5  6  1  0  0  0  0
  5  7  1  0  0  0  0
  5 12  1  1  0  0  0
  6 13  1  0  0  0  0
  6 14  1  0  0  0  0
  7  8  1  0  0  0  0
  7 15  1  0  0  0  0
  7 16  1  0  0  0  0
  8  9  1  0  0  0  0
  8 17  1  0  0  0  0
  8 18  1  0  0  0  0
  9 19  1  0  0  0  0
  9 20  1  0  0  0  0
M  END
$$$$
