2D_structures\o7_MMV1634397_2D.pdb
 OpenBabel02282413353D

 60 63  0  0  1  0  0  0  0  0999 V2000
    1.5400   -0.3500    0.0000 O   0  0  0  0  0  0  0  0  0  0  0  0
    1.3920   -1.3230    0.0000 C   0  0  0  0  0  0  0  0  0  0  0  0
    2.6700   -2.1100    0.0000 N   0  0  0  0  0  0  0  0  0  0  0  0
    3.9890   -1.3970    0.0000 C   0  0  0  0  0  0  0  0  0  0  0  0
    5.3090   -0.6840    0.0000 C   0  0  0  0  0  0  0  0  0  0  0  0
    6.5860   -1.4700    0.0000 C   0  0  0  0  0  0  0  0  0  0  0  0
    7.9060   -0.7570    0.0000 C   0  0  0  0  0  0  0  0  0  0  0  0
    7.9490    0.7420    0.0000 C   0  0  0  0  0  0  0  0  0  0  0  0
    9.2680    1.4550    0.0000 O   0  0  0  0  0  0  0  0  0  0  0  0
    9.3110    2.9550    0.0000 C   0  0  0  0  0  0  0  0  0  0  0  0
    6.6710    1.5290    0.0000 C   0  0  0  0  0  0  0  0  0  0  0  0
    5.3520    0.8160    0.0000 C   0  0  0  0  0  0  0  0  0  0  0  0
    0.0730   -2.0360    0.0000 C   0  0  1  0  0  0  0  0  0  0  0  0
   -0.4000   -0.6130    0.0000 C   0  0  0  0  0  0  0  0  0  0  0  0
   -1.8700   -0.3110    0.0000 C   0  0  0  0  0  0  0  0  0  0  0  0
   -2.8660   -1.4320    0.0000 N   0  0  0  0  0  0  0  0  0  0  0  0
   -4.3350   -1.1300    0.0000 C   0  0  1  0  0  0  0  0  0  0  0  0
   -4.0330    0.3390    0.0000 C   0  0  0  0  0  0  0  0  0  0  0  0
   -2.6100    0.8120    0.0000 C   0  0  0  0  0  0  0  0  0  0  0  0
   -2.3070    2.2810    0.0000 C   0  0  0  0  0  0  0  0  0  0  0  0
   -3.4290    3.2780    0.0000 C   0  0  0  0  0  0  0  0  0  0  0  0
   -4.8520    2.8050    0.0000 C   0  0  0  0  0  0  0  0  0  0  0  0
   -5.9740    3.8010    0.0000 C   0  0  0  0  0  0  0  0  0  0  0  0
   -7.3970    3.3280    0.0000 C   0  0  0  0  0  0  0  0  0  0  0  0
   -7.6990    1.8590    0.0000 C   0  0  0  0  0  0  0  0  0  0  0  0
   -6.5780    0.8620    0.0000 C   0  0  0  0  0  0  0  0  0  0  0  0
   -5.1540    1.3350    0.0000 C   0  0  0  0  0  0  0  0  0  0  0  0
   -4.6370   -2.5990    0.0000 C   0  0  0  0  0  0  0  0  0  0  0  0
   -2.3930   -2.8560    0.0000 C   0  0  0  0  0  0  0  0  0  0  0  0
   -0.9240   -3.1580    0.0000 C   0  0  0  0  0  0  0  0  0  0  0  0
    2.6270   -3.6090    0.0000 H   0  0  0  0  0  0  0  0  0  0  0  0
    3.2760   -0.0770    0.0000 H   0  0  0  0  0  0  0  0  0  0  0  0
    4.7020   -2.7160    0.0000 H   0  0  0  0  0  0  0  0  0  0  0  0
    6.5440   -2.9700    0.0000 H   0  0  0  0  0  0  0  0  0  0  0  0
    9.1840   -1.5440    0.0000 H   0  0  0  0  0  0  0  0  0  0  0  0
    9.3530    4.4540    0.0000 H   0  0  0  0  0  0  0  0  0  0  0  0
   10.8100    2.9120    0.0000 H   0  0  0  0  0  0  0  0  0  0  0  0
    7.8110    2.9970    0.0000 H   0  0  0  0  0  0  0  0  0  0  0  0
    6.7140    3.0280    0.0000 H   0  0  0  0  0  0  0  0  0  0  0  0
    4.0740    1.6020    0.0000 H   0  0  0  0  0  0  0  0  0  0  0  0
    1.0040   -3.2120    0.0000 H   0  0  0  0  0  0  0  0  0  0  0  0
   -0.3580    0.8870    0.0000 H   0  0  0  0  0  0  0  0  0  0  0  0
    0.5490   -0.3520    0.0000 H   0  0  0  0  0  0  0  0  0  0  0  0
   -2.4270    0.2590    0.0000 H   0  0  0  0  0  0  0  0  0  0  0  0
   -1.3170    1.0840    0.0000 H   0  0  0  0  0  0  0  0  0  0  0  0
   -5.8040   -0.8280    0.0000 H   0  0  0  0  0  0  0  0  0  0  0  0
   -1.2800    0.1170    0.0000 H   0  0  0  0  0  0  0  0  0  0  0  0
   -0.8840    2.7540    0.0000 H   0  0  0  0  0  0  0  0  0  0  0  0
   -3.1270    4.7470    0.0000 H   0  0  0  0  0  0  0  0  0  0  0  0
   -5.6720    5.2700    0.0000 H   0  0  0  0  0  0  0  0  0  0  0  0
   -8.5190    4.3240    0.0000 H   0  0  0  0  0  0  0  0  0  0  0  0
   -9.1230    1.3860    0.0000 H   0  0  0  0  0  0  0  0  0  0  0  0
   -6.8800   -0.6070    0.0000 H   0  0  0  0  0  0  0  0  0  0  0  0
   -4.9390   -4.0690    0.0000 H   0  0  0  0  0  0  0  0  0  0  0  0
   -6.1060   -2.2970    0.0000 H   0  0  0  0  0  0  0  0  0  0  0  0
   -3.3740   -3.4080    0.0000 H   0  0  0  0  0  0  0  0  0  0  0  0
   -2.4350   -4.3550    0.0000 H   0  0  0  0  0  0  0  0  0  0  0  0
   -3.8390   -3.2540    0.0000 H   0  0  0  0  0  0  0  0  0  0  0  0
    0.3540   -3.9440    0.0000 H   0  0  0  0  0  0  0  0  0  0  0  0
   -1.4760   -4.5520    0.0000 H   0  0  0  0  0  0  0  0  0  0  0  0
  1  2  2  0  0  0  0
  2  3  1  0  0  0  0
  2 13  1  0  0  0  0
  3  4  1  0  0  0  0
  3 31  1  0  0  0  0
  4  5  1  0  0  0  0
  4 32  1  0  0  0  0
  4 33  1  0  0  0  0
  5  6  2  0  0  0  0
  5 12  1  0  0  0  0
  6  7  1  0  0  0  0
  6 34  1  0  0  0  0
  7  8  2  0  0  0  0
  7 35  1  0  0  0  0
  8  9  1  0  0  0  0
  8 11  1  0  0  0  0
  9 10  1  0  0  0  0
 10 36  1  0  0  0  0
 10 37  1  0  0  0  0
 10 38  1  0  0  0  0
 11 12  2  0  0  0  0
 11 39  1  0  0  0  0
 12 40  1  0  0  0  0
 13 14  1  0  0  0  0
 13 30  1  0  0  0  0
 13 41  1  1  0  0  0
 14 15  1  0  0  0  0
 14 42  1  0  0  0  0
 14 43  1  0  0  0  0
 15 16  1  0  0  0  0
 15 44  1  0  0  0  0
 15 45  1  0  0  0  0
 16 17  1  0  0  0  0
 16 29  1  0  0  0  0
 17 18  1  0  0  0  0
 17 28  1  0  0  0  0
 17 46  1  1  0  0  0
 18 19  2  0  0  0  0
 18 27  1  0  0  0  0
 19 20  1  0  0  0  0
 19 47  1  0  0  0  0
 20 21  2  0  0  0  0
 20 48  1  0  0  0  0
 21 22  1  0  0  0  0
 21 49  1  0  0  0  0
 22 23  2  0  0  0  0
 22 27  1  0  0  0  0
 23 24  1  0  0  0  0
 23 50  1  0  0  0  0
 24 25  2  0  0  0  0
 24 51  1  0  0  0  0
 25 26  1  0  0  0  0
 25 52  1  0  0  0  0
 26 27  2  0  0  0  0
 26 53  1  0  0  0  0
 28 54  1  0  0  0  0
 28 55  1  0  0  0  0
 28 56  1  0  0  0  0
 29 30  1  0  0  0  0
 29 57  1  0  0  0  0
 29 58  1  0  0  0  0
 30 59  1  0  0  0  0
 30 60  1  0  0  0  0
M  END
$$$$
